REMARK  Name = Aloesin
REMARK  4 active torsions:
REMARK  status: ('A' for Active; 'I' for Inactive)
REMARK    1  A    between atoms: C_5  and  C_17
REMARK    2  A    between atoms: C_11  and  C_13
REMARK    3  A    between atoms: C_13  and  C_14
REMARK    4  A    between atoms: C_21  and  C_23
REMARK                            x       y       z     vdW  Elec       q    Type
REMARK                         _______ _______ _______ _____ _____    ______ ____
ROOT
ATOM      1  C   UNL     1       2.673  27.218 -14.026  0.00  0.00    +0.031 C 
ATOM      2  C   UNL     1       3.117  27.655 -12.638  0.00  0.00    -0.013 A 
ATOM      3  C   UNL     1       4.388  28.226 -12.373  0.00  0.00    +0.070 A 
ATOM      4  C   UNL     1       5.428  28.436 -13.379  0.00  0.00    +0.201 A 
ATOM      5  C   UNL     1       6.684  28.986 -12.952  0.00  0.00    +0.075 A 
ATOM      6  C   UNL     1       6.888  29.333 -11.661  0.00  0.00    +0.133 A 
ATOM      7  O   UNL     1       5.900  29.167 -10.759  0.00  0.00    -0.457 OA
ATOM      8  O   UNL     1       5.286  28.163 -14.567  0.00  0.00    -0.286 OA
ATOM      9  C   UNL     1       4.679  28.601 -11.041  0.00  0.00    +0.149 A 
ATOM     10  C   UNL     1       3.788  28.403  -9.976  0.00  0.00    +0.081 A 
ATOM     11  C   UNL     1       2.552  27.838 -10.289  0.00  0.00    +0.197 A 
ATOM     12  O   UNL     1       1.611  27.616  -9.327  0.00  0.00    -0.287 OA
ATOM     13  C   UNL     1       2.217  27.471 -11.594  0.00  0.00    +0.038 A 
ENDROOT
BRANCH  10  14
ATOM     14  C   UNL     1       4.143  28.764  -8.526  0.00  0.00    +0.176 C 
ATOM     15  O   UNL     1       4.541  30.155  -8.504  0.00  0.00    -0.346 OA
ATOM     16  C   UNL     1       4.887  30.696  -7.205  0.00  0.00    +0.181 C 
ATOM     17  C   UNL     1       6.128  29.940  -6.710  0.00  0.00    +0.214 C 
ATOM     18  O   UNL     1       6.456  30.377  -5.404  0.00  0.00    -0.218 OA
ATOM     19  C   UNL     1       5.865  28.420  -6.698  0.00  0.00    +0.218 C 
ATOM     20  O   UNL     1       7.077  27.751  -6.398  0.00  0.00    -0.217 OA
ATOM     21  C   UNL     1       5.337  27.893  -8.050  0.00  0.00    +0.216 C 
ATOM     22  O   UNL     1       4.866  26.563  -7.901  0.00  0.00    -0.217 OA
BRANCH  16  23
ATOM     23  C   UNL     1       5.154  32.194  -7.395  0.00  0.00    +0.214 C 
ATOM     24  O   UNL     1       3.952  32.826  -7.781  0.00  0.00    -0.218 OA
ENDBRANCH  16  23
ENDBRANCH  10  14
BRANCH   6  25
ATOM     25  C   UNL     1       8.157  29.925 -11.094  0.00  0.00    +0.129 C 
BRANCH  25  26
ATOM     26  C   UNL     1       8.739  28.902 -10.134  0.00  0.00    +0.159 C 
ATOM     27  C   UNL     1       9.680  27.833 -10.640  0.00  0.00    +0.073 C 
ATOM     28  O   UNL     1       8.492  28.966  -8.962  0.00  0.00    -0.296 OA
ENDBRANCH  25  26
ENDBRANCH   6  25
TORSDOF 4
