REMARK  Name = Palmitic acid
REMARK  14 active torsions:
REMARK  status: ('A' for Active; 'I' for Inactive)
REMARK    1  A    between atoms: C_2  and  C_3
REMARK    2  A    between atoms: C_3  and  C_4
REMARK    3  A    between atoms: C_4  and  C_5
REMARK    4  A    between atoms: C_5  and  C_6
REMARK    5  A    between atoms: C_6  and  C_7
REMARK    6  A    between atoms: C_7  and  C_8
REMARK    7  A    between atoms: C_8  and  C_9
REMARK    8  A    between atoms: C_9  and  C_10
REMARK    9  A    between atoms: C_10  and  C_11
REMARK   10  A    between atoms: C_11  and  C_12
REMARK   11  A    between atoms: C_12  and  C_13
REMARK   12  A    between atoms: C_13  and  C_14
REMARK   13  A    between atoms: C_14  and  C_15
REMARK   14  A    between atoms: C_15  and  C_16
REMARK                            x       y       z     vdW  Elec       q    Type
REMARK                         _______ _______ _______ _____ _____    ______ ____
ROOT
ATOM      1  C   UNL     1       7.426  29.017 -11.179  0.00  0.00    +0.000 C 
ENDROOT
BRANCH   1   2
ATOM      2  C   UNL     1       8.850  28.479 -10.978  0.00  0.00    +0.000 C 
BRANCH   2   3
ATOM      3  C   UNL     1       9.134  28.088  -9.520  0.00  0.00    +0.000 C 
BRANCH   3   4
ATOM      4  C   UNL     1      10.518  27.431  -9.414  0.00  0.00    +0.000 C 
BRANCH   4   5
ATOM      5  C   UNL     1      10.959  27.215  -7.956  0.00  0.00    +0.000 C 
BRANCH   5   6
ATOM      6  C   UNL     1      12.483  27.018  -7.879  0.00  0.00    +0.000 C 
BRANCH   6   7
ATOM      7  C   UNL     1      13.008  26.639  -6.487  0.00  0.00    +0.000 C 
BRANCH   7   9
ATOM      8  C   UNL     1      13.368  24.792  -4.794  0.00  0.00    +0.000 C 
ATOM      9  C   UNL     1      12.693  25.183  -6.112  0.00  0.00    +0.000 C 
ENDBRANCH   7   9
ENDBRANCH   6   7
ENDBRANCH   5   6
ENDBRANCH   4   5
ENDBRANCH   3   4
ENDBRANCH   2   3
ENDBRANCH   1   2
BRANCH   1  10
ATOM     10  C   UNL     1       7.173  29.347 -12.658  0.00  0.00    +0.000 C 
BRANCH  10  11
ATOM     11  C   UNL     1       5.686  29.603 -12.944  0.00  0.00    +0.000 C 
BRANCH  11  12
ATOM     12  C   UNL     1       5.501  30.176 -14.359  0.00  0.00    +0.000 C 
BRANCH  12  13
ATOM     13  C   UNL     1       4.043  30.484 -14.737  0.00  0.00    +0.001 C 
BRANCH  13  14
ATOM     14  C   UNL     1       3.072  29.289 -14.795  0.00  0.00    +0.012 C 
BRANCH  14  15
ATOM     15  C   UNL     1       3.211  28.391 -16.036  0.00  0.00    +0.114 C 
BRANCH  15  16
ATOM     16  C   UNL     1       4.475  27.527 -16.062  0.00  0.00    +0.365 C 
ATOM     17  O   UNL     1       5.195  27.611 -17.080  0.00  0.00    -0.246 OA
ATOM     18  O   UNL     1       4.698  26.792 -15.075  0.00  0.00    -0.246 OA
ENDBRANCH  15  16
ENDBRANCH  14  15
ENDBRANCH  13  14
ENDBRANCH  12  13
ENDBRANCH  11  12
ENDBRANCH  10  11
ENDBRANCH   1  10
TORSDOF 14
