REMARK  Name = Stearic acid
REMARK  16 active torsions:
REMARK  status: ('A' for Active; 'I' for Inactive)
REMARK    1  A    between atoms: C_2  and  C_3
REMARK    2  A    between atoms: C_3  and  C_4
REMARK    3  A    between atoms: C_4  and  C_5
REMARK    4  A    between atoms: C_5  and  C_6
REMARK    5  A    between atoms: C_6  and  C_7
REMARK    6  A    between atoms: C_7  and  C_8
REMARK    7  A    between atoms: C_8  and  C_9
REMARK    8  A    between atoms: C_9  and  C_10
REMARK    9  A    between atoms: C_10  and  C_11
REMARK   10  A    between atoms: C_11  and  C_12
REMARK   11  A    between atoms: C_12  and  C_13
REMARK   12  A    between atoms: C_13  and  C_14
REMARK   13  A    between atoms: C_14  and  C_15
REMARK   14  A    between atoms: C_15  and  C_16
REMARK   15  A    between atoms: C_16  and  C_17
REMARK   16  A    between atoms: C_17  and  C_18
REMARK                            x       y       z     vdW  Elec       q    Type
REMARK                         _______ _______ _______ _____ _____    ______ ____
ROOT
ATOM      1  C   UNL     1       7.085  29.580 -11.962  0.00  0.00    +0.000 C 
ENDROOT
BRANCH   1   2
ATOM      2  C   UNL     1       8.331  28.887 -11.394  0.00  0.00    +0.000 C 
BRANCH   2   3
ATOM      3  C   UNL     1       8.252  28.666  -9.878  0.00  0.00    +0.000 C 
BRANCH   3   4
ATOM      4  C   UNL     1       9.454  27.833  -9.406  0.00  0.00    +0.000 C 
BRANCH   4   5
ATOM      5  C   UNL     1       9.333  27.476  -7.918  0.00  0.00    +0.000 C 
BRANCH   5   6
ATOM      6  C   UNL     1      10.488  26.594  -7.416  0.00  0.00    +0.000 C 
BRANCH   6   7
ATOM      7  C   UNL     1      11.817  27.353  -7.277  0.00  0.00    +0.000 C 
BRANCH   7   8
ATOM      8  C   UNL     1      12.916  26.436  -6.723  0.00  0.00    +0.000 C 
BRANCH   8  10
ATOM      9  C   UNL     1      15.325  26.297  -5.970  0.00  0.00    +0.000 C 
ATOM     10  C   UNL     1      14.196  27.229  -6.421  0.00  0.00    +0.000 C 
ENDBRANCH   8  10
ENDBRANCH   7   8
ENDBRANCH   6   7
ENDBRANCH   5   6
ENDBRANCH   4   5
ENDBRANCH   3   4
ENDBRANCH   2   3
ENDBRANCH   1   2
BRANCH   1  11
ATOM     11  C   UNL     1       7.137  29.572 -13.499  0.00  0.00    +0.000 C 
BRANCH  11  12
ATOM     12  C   UNL     1       5.991  30.336 -14.178  0.00  0.00    +0.000 C 
BRANCH  12  13
ATOM     13  C   UNL     1       4.613  29.698 -13.949  0.00  0.00    +0.000 C 
BRANCH  13  14
ATOM     14  C   UNL     1       3.553  30.423 -14.788  0.00  0.00    +0.000 C 
BRANCH  14  15
ATOM     15  C   UNL     1       2.192  29.709 -14.717  0.00  0.00    +0.001 C 
BRANCH  15  16
ATOM     16  C   UNL     1       1.049  30.447 -15.440  0.00  0.00    +0.012 C 
BRANCH  16  17
ATOM     17  C   UNL     1       1.415  30.886 -16.866  0.00  0.00    +0.114 C 
BRANCH  17  18
ATOM     18  C   UNL     1       0.238  31.466 -17.647  0.00  0.00    +0.365 C 
ATOM     19  O   UNL     1       0.349  32.649 -18.037  0.00  0.00    -0.246 OA
ATOM     20  O   UNL     1      -0.725  30.705 -17.885  0.00  0.00    -0.246 OA
ENDBRANCH  17  18
ENDBRANCH  16  17
ENDBRANCH  15  16
ENDBRANCH  14  15
ENDBRANCH  13  14
ENDBRANCH  12  13
ENDBRANCH  11  12
ENDBRANCH   1  11
TORSDOF 16
