Aloeresin A
  MOE2015           3D

 67 70  0  0  1  0  0  0  0  0999 V2000
    3.1980   23.0050  -13.9480 C   0  0  0  0  0  0  0  0  0  0  0  0
    3.0880   22.5910  -14.9510 H   0  0  0  0  0  0  0  0  0  0  0  0
    2.4320   22.5820  -13.2980 H   0  0  0  0  0  0  0  0  0  0  0  0
    4.1970   22.7850  -13.5710 H   0  0  0  0  0  0  0  0  0  0  0  0
    3.0180   24.5150  -13.9900 C   0  0  0  0  0  0  0  0  0  0  0  0
    2.8120   25.1000  -15.2330 C   0  0  0  0  0  0  0  0  0  0  0  0
    2.7740   24.5020  -16.1070 H   0  0  0  0  0  0  0  0  0  0  0  0
    2.6400   26.4790  -15.3550 C   0  0  0  0  0  0  0  0  0  0  0  0
    2.6730   27.3250  -14.2440 C   0  0  0  0  0  0  0  0  0  0  0  0
    2.8340   26.7190  -12.9930 C   0  0  0  0  0  0  0  0  0  0  0  0
    3.0330   25.3300  -12.8300 C   0  0  0  0  0  0  0  0  0  0  0  0
    3.2170   24.8300  -11.4700 C   0  0  0  0  0  0  0  0  0  0  0  0
    3.5520   23.6780  -11.2140 O   0  0  0  0  0  0  0  0  0  0  0  0
    3.0090   25.7410  -10.3800 C   0  0  0  0  0  0  0  0  0  0  0  0
    3.0470   25.3530   -9.3950 H   0  0  0  0  0  0  0  0  0  0  0  0
    2.7760   27.0550  -10.6060 C   0  0  0  0  0  0  0  0  0  0  0  0
    2.7540   27.5240  -11.8760 O   0  0  0  0  0  0  0  0  0  0  0  0
    2.5340   28.1040   -9.5420 C   0  0  0  0  0  0  0  0  0  0  0  0
    2.1710   27.6260   -8.6410 H   0  0  0  0  0  0  0  0  0  0  0  0
    1.8570   28.8550   -9.9280 H   0  0  0  0  0  0  0  0  0  0  0  0
    3.8820   28.7350   -9.2710 C   0  0  0  0  0  0  0  0  0  0  0  0
    4.2590   29.6520   -9.9440 O   0  0  0  0  0  0  0  0  0  0  0  0
    4.7700   28.1670   -8.1860 C   0  0  0  0  0  0  0  0  0  0  0  0
    4.1750   28.0950   -7.2870 H   0  0  0  0  0  0  0  0  0  0  0  0
    5.6050   28.8370   -8.0470 H   0  0  0  0  0  0  0  0  0  0  0  0
    5.0940   27.1900   -8.5150 H   0  0  0  0  0  0  0  0  0  0  0  0
    2.5500   28.8480  -14.3630 C   0  0  1  0  0  0  0  0  0  0  0  0
    2.4400   29.3210  -13.3960 H   0  0  0  0  0  0  0  0  0  0  0  0
    3.8090   29.4060  -15.0760 C   0  0  1  0  0  0  0  0  0  0  0  0
    4.0000   28.9010  -16.0230 H   0  0  0  0  0  0  0  0  0  0  0  0
    3.5950   30.9040  -15.3690 C   0  0  2  0  0  0  0  0  0  0  0  0
    3.4930   31.4390  -14.4240 H   0  0  0  0  0  0  0  0  0  0  0  0
    2.3130   31.1010  -16.2050 C   0  0  1  0  0  0  0  0  0  0  0  0
    2.4130   30.5450  -17.1360 H   0  0  0  0  0  0  0  0  0  0  0  0
    1.1150   30.5350  -15.4210 C   0  0  2  0  0  0  0  0  0  0  0  0
    1.0160   31.0700  -14.4760 H   0  0  0  0  0  0  0  0  0  0  0  0
    1.3890   29.1350  -15.1860 O   0  0  0  0  0  0  0  0  0  0  0  0
   -0.2270   30.6340  -16.1630 C   0  0  0  0  0  0  0  0  0  0  0  0
   -0.5010   31.6840  -16.2740 H   0  0  0  0  0  0  0  0  0  0  0  0
   -0.9950   30.1400  -15.5660 H   0  0  0  0  0  0  0  0  0  0  0  0
   -0.1830   30.0300  -17.4400 O   0  0  0  0  0  0  0  0  0  0  0  0
    0.3240   30.5980  -18.0260 H   0  0  0  0  0  0  0  0  0  0  0  0
    2.0970   32.4670  -16.5060 O   0  0  0  0  0  0  0  0  0  0  0  0
    2.0440   32.9550  -15.6780 H   0  0  0  0  0  0  0  0  0  0  0  0
    4.7250   31.4100  -16.0590 O   0  0  0  0  0  0  0  0  0  0  0  0
    4.8510   30.9060  -16.8660 H   0  0  0  0  0  0  0  0  0  0  0  0
    4.9300   29.2980  -14.1450 O   0  0  0  0  0  0  0  0  0  0  0  0
    5.8840   28.3380  -14.2240 C   0  0  0  0  0  0  0  0  0  0  0  0
    5.8480   27.5470  -15.1550 O   0  0  0  0  0  0  0  0  0  0  0  0
    6.8850   28.2750  -13.1830 C   0  0  0  0  0  0  0  0  0  0  0  0
    7.5840   27.4890  -13.2850 H   0  0  0  0  0  0  0  0  0  0  0  0
    6.9250   29.1150  -12.1130 C   0  0  0  0  0  0  0  0  0  0  0  0
    6.2150   29.8990  -12.0450 H   0  0  0  0  0  0  0  0  0  0  0  0
    7.8330   28.9890  -10.9810 C   0  0  0  0  0  0  0  0  0  0  0  0
    7.5960   29.7670   -9.8380 C   0  0  0  0  0  0  0  0  0  0  0  0
    6.8340   30.5020   -9.8510 H   0  0  0  0  0  0  0  0  0  0  0  0
    8.3200   29.5600   -8.6730 C   0  0  0  0  0  0  0  0  0  0  0  0
    8.1040   30.1330   -7.8110 H   0  0  0  0  0  0  0  0  0  0  0  0
    9.3140   28.5850   -8.6500 C   0  0  0  0  0  0  0  0  0  0  0  0
    9.6300   27.8590   -9.7940 C   0  0  0  0  0  0  0  0  0  0  0  0
   10.4110   27.1430   -9.7790 H   0  0  0  0  0  0  0  0  0  0  0  0
    8.8990   28.0710  -10.9540 C   0  0  0  0  0  0  0  0  0  0  0  0
    9.1410   27.5040  -11.8120 H   0  0  0  0  0  0  0  0  0  0  0  0
    9.9870   28.3280   -7.4950 O   0  0  0  0  0  0  0  0  0  0  0  0
   10.6520   27.6270   -7.6420 H   0  0  0  0  0  0  0  0  0  0  0  0
    2.4150   26.9640  -16.6080 O   0  0  0  0  0  0  0  0  0  0  0  0
    2.1060   27.8910  -16.5540 H   0  0  0  0  0  0  0  0  0  0  0  0
  1  2  1  0  0  0  0
  1  3  1  0  0  0  0
  1  4  1  0  0  0  0
  1  5  1  0  0  0  0
  5  6  1  0  0  0  0
  5 11  2  0  0  0  0
  6  7  1  0  0  0  0
  6  8  2  0  0  0  0
  8  9  1  0  0  0  0
  8 66  1  0  0  0  0
  9 10  2  0  0  0  0
  9 27  1  0  0  0  0
 10 11  1  0  0  0  0
 10 17  1  0  0  0  0
 11 12  1  0  0  0  0
 12 13  2  0  0  0  0
 12 14  1  0  0  0  0
 14 15  1  0  0  0  0
 14 16  2  0  0  0  0
 16 17  1  0  0  0  0
 16 18  1  0  0  0  0
 18 19  1  0  0  0  0
 18 20  1  0  0  0  0
 18 21  1  0  0  0  0
 21 22  2  0  0  0  0
 21 23  1  0  0  0  0
 23 24  1  0  0  0  0
 23 25  1  0  0  0  0
 23 26  1  0  0  0  0
 27 28  1  0  0  0  0
 27 29  1  0  0  0  0
 27 37  1  0  0  0  0
 29 30  1  0  0  0  0
 29 31  1  0  0  0  0
 29 47  1  0  0  0  0
 31 32  1  0  0  0  0
 31 33  1  0  0  0  0
 31 45  1  0  0  0  0
 33 34  1  0  0  0  0
 33 35  1  0  0  0  0
 33 43  1  0  0  0  0
 35 36  1  0  0  0  0
 35 37  1  0  0  0  0
 35 38  1  0  0  0  0
 38 39  1  0  0  0  0
 38 40  1  0  0  0  0
 38 41  1  0  0  0  0
 41 42  1  0  0  0  0
 43 44  1  0  0  0  0
 45 46  1  0  0  0  0
 47 48  1  0  0  0  0
 48 49  2  0  0  0  0
 48 50  1  0  0  0  0
 50 51  1  0  0  0  0
 50 52  2  0  0  0  0
 52 53  1  0  0  0  0
 52 54  1  0  0  0  0
 54 55  1  0  0  0  0
 54 62  2  0  0  0  0
 55 56  1  0  0  0  0
 55 57  2  0  0  0  0
 57 58  1  0  0  0  0
 57 59  1  0  0  0  0
 59 60  2  0  0  0  0
 59 64  1  0  0  0  0
 60 61  1  0  0  0  0
 60 62  1  0  0  0  0
 62 63  1  0  0  0  0
 64 65  1  0  0  0  0
 66 67  1  0  0  0  0
M  END
>  <rseq>
1

>  <mseq>
1

>  <S>
-6.6087494

>  <rmsd_refine>
2.1572092

>  <E_conf>
12.15762

>  <E_place>
-56.188953

>  <E_score1>
8.1800442

>  <E_refine>
-36.236443

>  <E_score2>
-6.6087494

$$$$
Aloeresin A
  MOE2015           3D

 67 70  0  0  1  0  0  0  0  0999 V2000
    2.9920   22.8440  -14.3880 C   0  0  0  0  0  0  0  0  0  0  0  0
    2.7540   22.4970  -15.3930 H   0  0  0  0  0  0  0  0  0  0  0  0
    2.2800   22.4140  -13.6830 H   0  0  0  0  0  0  0  0  0  0  0  0
    4.0140   22.5610  -14.1320 H   0  0  0  0  0  0  0  0  0  0  0  0
    2.8790   24.3600  -14.3270 C   0  0  0  0  0  0  0  0  0  0  0  0
    2.6690   25.0370  -15.5200 C   0  0  0  0  0  0  0  0  0  0  0  0
    2.5970   24.5030  -16.4320 H   0  0  0  0  0  0  0  0  0  0  0  0
    2.5410   26.4260  -15.5410 C   0  0  0  0  0  0  0  0  0  0  0  0
    2.5780   27.1890  -14.3700 C   0  0  0  0  0  0  0  0  0  0  0  0
    2.7360   26.4880  -13.1670 C   0  0  0  0  0  0  0  0  0  0  0  0
    2.9540   25.0920  -13.1170 C   0  0  0  0  0  0  0  0  0  0  0  0
    3.2210   24.4940  -11.8150 C   0  0  0  0  0  0  0  0  0  0  0  0
    3.6520   23.3550  -11.6720 O   0  0  0  0  0  0  0  0  0  0  0  0
    2.9820   25.2940  -10.6490 C   0  0  0  0  0  0  0  0  0  0  0  0
    3.0510   24.8230   -9.7020 H   0  0  0  0  0  0  0  0  0  0  0  0
    2.6730   26.6070  -10.7560 C   0  0  0  0  0  0  0  0  0  0  0  0
    2.6260   27.1930  -11.9830 O   0  0  0  0  0  0  0  0  0  0  0  0
    2.3560   27.5160   -9.5890 C   0  0  0  0  0  0  0  0  0  0  0  0
    2.2390   26.9210   -8.6930 H   0  0  0  0  0  0  0  0  0  0  0  0
    1.4770   28.1000   -9.8240 H   0  0  0  0  0  0  0  0  0  0  0  0
    3.5530   28.4230   -9.4170 C   0  0  0  0  0  0  0  0  0  0  0  0
    4.5700   27.9970   -8.9460 O   0  0  0  0  0  0  0  0  0  0  0  0
    3.4670   29.8610   -9.8710 C   0  0  0  0  0  0  0  0  0  0  0  0
    2.4890   30.2360   -9.6050 H   0  0  0  0  0  0  0  0  0  0  0  0
    3.6080   29.8670  -10.9430 H   0  0  0  0  0  0  0  0  0  0  0  0
    4.2420   30.4070   -9.3540 H   0  0  0  0  0  0  0  0  0  0  0  0
    2.4680   28.7200  -14.3850 C   0  0  1  0  0  0  0  0  0  0  0  0
    2.3010   29.1240  -13.3950 H   0  0  0  0  0  0  0  0  0  0  0  0
    3.7760   29.2970  -14.9850 C   0  0  1  0  0  0  0  0  0  0  0  0
    4.0240   28.8270  -15.9370 H   0  0  0  0  0  0  0  0  0  0  0  0
    3.6020   30.8070  -15.2340 C   0  0  2  0  0  0  0  0  0  0  0  0
    3.4240   31.3090  -14.2830 H   0  0  0  0  0  0  0  0  0  0  0  0
    2.4000   31.0450  -16.1670 C   0  0  1  0  0  0  0  0  0  0  0  0
    2.5620   30.5040  -17.0980 H   0  0  0  0  0  0  0  0  0  0  0  0
    1.1320   30.4870  -15.4980 C   0  0  2  0  0  0  0  0  0  0  0  0
    0.9370   31.0240  -14.5680 H   0  0  0  0  0  0  0  0  0  0  0  0
    1.3590   29.0730  -15.2630 O   0  0  0  0  0  0  0  0  0  0  0  0
   -0.0930   30.6080  -16.4140 C   0  0  0  0  0  0  0  0  0  0  0  0
    0.1000   30.0880  -17.3530 H   0  0  0  0  0  0  0  0  0  0  0  0
   -0.2920   31.6590  -16.6250 H   0  0  0  0  0  0  0  0  0  0  0  0
   -1.2280   30.0430  -15.7910 O   0  0  0  0  0  0  0  0  0  0  0  0
   -1.0360   29.1250  -15.5840 H   0  0  0  0  0  0  0  0  0  0  0  0
    2.2390   32.4200  -16.4580 O   0  0  0  0  0  0  0  0  0  0  0  0
    2.1140   32.8940  -15.6290 H   0  0  0  0  0  0  0  0  0  0  0  0
    4.7900   31.3280  -15.8100 O   0  0  0  0  0  0  0  0  0  0  0  0
    4.9640   30.8760  -16.6390 H   0  0  0  0  0  0  0  0  0  0  0  0
    4.8310   29.1430  -13.9870 O   0  0  0  0  0  0  0  0  0  0  0  0
    5.8620   28.2710  -14.1170 C   0  0  0  0  0  0  0  0  0  0  0  0
    5.9000   27.5470  -15.1000 O   0  0  0  0  0  0  0  0  0  0  0  0
    6.8560   28.2220  -13.0690 C   0  0  0  0  0  0  0  0  0  0  0  0
    7.6310   27.5190  -13.2240 H   0  0  0  0  0  0  0  0  0  0  0  0
    6.8090   28.9740  -11.9360 C   0  0  0  0  0  0  0  0  0  0  0  0
    6.0240   29.6750  -11.8140 H   0  0  0  0  0  0  0  0  0  0  0  0
    7.7280   28.8570  -10.8120 C   0  0  0  0  0  0  0  0  0  0  0  0
    7.4030   29.5000   -9.6080 C   0  0  0  0  0  0  0  0  0  0  0  0
    6.5480   30.1220   -9.5590 H   0  0  0  0  0  0  0  0  0  0  0  0
    8.1670   29.3070   -8.4660 C   0  0  0  0  0  0  0  0  0  0  0  0
    7.8850   29.7700   -7.5580 H   0  0  0  0  0  0  0  0  0  0  0  0
    9.2890   28.4840   -8.5260 C   0  0  0  0  0  0  0  0  0  0  0  0
    9.6730   27.8840   -9.7220 C   0  0  0  0  0  0  0  0  0  0  0  0
   10.5400   27.2760   -9.7640 H   0  0  0  0  0  0  0  0  0  0  0  0
    8.8980   28.0760  -10.8570 C   0  0  0  0  0  0  0  0  0  0  0  0
    9.1890   27.5980  -11.7530 H   0  0  0  0  0  0  0  0  0  0  0  0
   10.0220   28.2550   -7.4030 O   0  0  0  0  0  0  0  0  0  0  0  0
   10.7640   27.6500   -7.6030 H   0  0  0  0  0  0  0  0  0  0  0  0
    2.3550   27.0020  -16.7610 O   0  0  0  0  0  0  0  0  0  0  0  0
    2.1130   27.9420  -16.6460 H   0  0  0  0  0  0  0  0  0  0  0  0
  1  2  1  0  0  0  0
  1  3  1  0  0  0  0
  1  4  1  0  0  0  0
  1  5  1  0  0  0  0
  5  6  1  0  0  0  0
  5 11  2  0  0  0  0
  6  7  1  0  0  0  0
  6  8  2  0  0  0  0
  8  9  1  0  0  0  0
  8 66  1  0  0  0  0
  9 10  2  0  0  0  0
  9 27  1  0  0  0  0
 10 11  1  0  0  0  0
 10 17  1  0  0  0  0
 11 12  1  0  0  0  0
 12 13  2  0  0  0  0
 12 14  1  0  0  0  0
 14 15  1  0  0  0  0
 14 16  2  0  0  0  0
 16 17  1  0  0  0  0
 16 18  1  0  0  0  0
 18 19  1  0  0  0  0
 18 20  1  0  0  0  0
 18 21  1  0  0  0  0
 21 22  2  0  0  0  0
 21 23  1  0  0  0  0
 23 24  1  0  0  0  0
 23 25  1  0  0  0  0
 23 26  1  0  0  0  0
 27 28  1  0  0  0  0
 27 29  1  0  0  0  0
 27 37  1  0  0  0  0
 29 30  1  0  0  0  0
 29 31  1  0  0  0  0
 29 47  1  0  0  0  0
 31 32  1  0  0  0  0
 31 33  1  0  0  0  0
 31 45  1  0  0  0  0
 33 34  1  0  0  0  0
 33 35  1  0  0  0  0
 33 43  1  0  0  0  0
 35 36  1  0  0  0  0
 35 37  1  0  0  0  0
 35 38  1  0  0  0  0
 38 39  1  0  0  0  0
 38 40  1  0  0  0  0
 38 41  1  0  0  0  0
 41 42  1  0  0  0  0
 43 44  1  0  0  0  0
 45 46  1  0  0  0  0
 47 48  1  0  0  0  0
 48 49  2  0  0  0  0
 48 50  1  0  0  0  0
 50 51  1  0  0  0  0
 50 52  2  0  0  0  0
 52 53  1  0  0  0  0
 52 54  1  0  0  0  0
 54 55  1  0  0  0  0
 54 62  2  0  0  0  0
 55 56  1  0  0  0  0
 55 57  2  0  0  0  0
 57 58  1  0  0  0  0
 57 59  1  0  0  0  0
 59 60  2  0  0  0  0
 59 64  1  0  0  0  0
 60 61  1  0  0  0  0
 60 62  1  0  0  0  0
 62 63  1  0  0  0  0
 64 65  1  0  0  0  0
 66 67  1  0  0  0  0
M  END
>  <rseq>
1

>  <mseq>
1

>  <S>
-6.4568853

>  <rmsd_refine>
1.2030259

>  <E_conf>
11.441436

>  <E_place>
-48.848625

>  <E_score1>
14.214042

>  <E_refine>
-36.880226

>  <E_score2>
-6.4568853

$$$$
Aloeresin A
  MOE2015           3D

 67 70  0  0  1  0  0  0  0  0999 V2000
    5.8490   24.1530   -4.9210 C   0  0  0  0  0  0  0  0  0  0  0  0
    4.9710   23.9220   -4.3180 H   0  0  0  0  0  0  0  0  0  0  0  0
    6.7500   23.9340   -4.3470 H   0  0  0  0  0  0  0  0  0  0  0  0
    5.8170   23.5670   -5.8400 H   0  0  0  0  0  0  0  0  0  0  0  0
    5.8540   25.6300   -5.2850 C   0  0  0  0  0  0  0  0  0  0  0  0
    4.8380   26.4180   -4.7590 C   0  0  0  0  0  0  0  0  0  0  0  0
    4.1020   25.9910   -4.1260 H   0  0  0  0  0  0  0  0  0  0  0  0
    4.7730   27.7830   -5.0420 C   0  0  0  0  0  0  0  0  0  0  0  0
    5.6920   28.4020   -5.8930 C   0  0  0  0  0  0  0  0  0  0  0  0
    6.7070   27.5970   -6.4210 C   0  0  0  0  0  0  0  0  0  0  0  0
    6.8380   26.2230   -6.1170 C   0  0  0  0  0  0  0  0  0  0  0  0
    7.9900   25.5160   -6.6710 C   0  0  0  0  0  0  0  0  0  0  0  0
    8.2160   24.3290   -6.4610 O   0  0  0  0  0  0  0  0  0  0  0  0
    8.9010   26.2490   -7.5030 C   0  0  0  0  0  0  0  0  0  0  0  0
    9.7410   25.7340   -7.8960 H   0  0  0  0  0  0  0  0  0  0  0  0
    8.6900   27.5540   -7.7850 C   0  0  0  0  0  0  0  0  0  0  0  0
    7.6150   28.1910   -7.2690 O   0  0  0  0  0  0  0  0  0  0  0  0
    9.5810   28.4200   -8.6430 C   0  0  0  0  0  0  0  0  0  0  0  0
   10.6080   28.1350   -8.4590 H   0  0  0  0  0  0  0  0  0  0  0  0
    9.3660   29.4600   -8.4350 H   0  0  0  0  0  0  0  0  0  0  0  0
    9.2420   28.1270  -10.0880 C   0  0  0  0  0  0  0  0  0  0  0  0
    9.9590   27.4190  -10.7360 O   0  0  0  0  0  0  0  0  0  0  0  0
    8.0110   28.7470  -10.7130 C   0  0  0  0  0  0  0  0  0  0  0  0
    7.1660   28.4440  -10.1120 H   0  0  0  0  0  0  0  0  0  0  0  0
    8.1400   29.8190  -10.6840 H   0  0  0  0  0  0  0  0  0  0  0  0
    7.9270   28.3840  -11.7280 H   0  0  0  0  0  0  0  0  0  0  0  0
    5.6140   29.8900   -6.2530 C   0  0  1  0  0  0  0  0  0  0  0  0
    6.5010   30.2310   -6.7670 H   0  0  0  0  0  0  0  0  0  0  0  0
    4.3630   30.1420   -7.1270 C   0  0  1  0  0  0  0  0  0  0  0  0
    3.4530   29.7790   -6.6480 H   0  0  0  0  0  0  0  0  0  0  0  0
    4.2190   31.6600   -7.3370 C   0  0  2  0  0  0  0  0  0  0  0  0
    5.0820   32.0280   -7.8950 H   0  0  0  0  0  0  0  0  0  0  0  0
    4.1260   32.4050   -5.9940 C   0  0  1  0  0  0  0  0  0  0  0  0
    3.2190   32.0840   -5.4800 H   0  0  0  0  0  0  0  0  0  0  0  0
    5.3490   32.0690   -5.1230 C   0  0  2  0  0  0  0  0  0  0  0  0
    6.2350   32.4790   -5.6000 H   0  0  0  0  0  0  0  0  0  0  0  0
    5.4460   30.6280   -5.0130 O   0  0  0  0  0  0  0  0  0  0  0  0
    5.2580   32.6380   -3.6970 C   0  0  0  0  0  0  0  0  0  0  0  0
    5.2510   33.7270   -3.7420 H   0  0  0  0  0  0  0  0  0  0  0  0
    6.1390   32.3210   -3.1370 H   0  0  0  0  0  0  0  0  0  0  0  0
    4.0990   32.1910   -3.0170 O   0  0  0  0  0  0  0  0  0  0  0  0
    3.3340   32.6470   -3.3770 H   0  0  0  0  0  0  0  0  0  0  0  0
    4.0660   33.8050   -6.2060 O   0  0  0  0  0  0  0  0  0  0  0  0
    4.8720   34.1000   -6.6390 H   0  0  0  0  0  0  0  0  0  0  0  0
    3.0450   31.8940   -8.0910 O   0  0  0  0  0  0  0  0  0  0  0  0
    2.2770   31.6830   -7.5540 H   0  0  0  0  0  0  0  0  0  0  0  0
    4.5760   29.5490   -8.4520 O   0  0  0  0  0  0  0  0  0  0  0  0
    3.9280   28.4320   -8.8740 C   0  0  0  0  0  0  0  0  0  0  0  0
    3.3320   27.7560   -8.0500 O   0  0  0  0  0  0  0  0  0  0  0  0
    3.9700   28.0910  -10.2800 C   0  0  0  0  0  0  0  0  0  0  0  0
    3.4810   27.1870  -10.5350 H   0  0  0  0  0  0  0  0  0  0  0  0
    4.5710   28.8490  -11.2370 C   0  0  0  0  0  0  0  0  0  0  0  0
    5.0270   29.7630  -10.9590 H   0  0  0  0  0  0  0  0  0  0  0  0
    4.6400   28.5160  -12.6540 C   0  0  0  0  0  0  0  0  0  0  0  0
    5.0280   29.5080  -13.5700 C   0  0  0  0  0  0  0  0  0  0  0  0
    5.2600   30.4820  -13.2230 H   0  0  0  0  0  0  0  0  0  0  0  0
    5.1060   29.2350  -14.9300 C   0  0  0  0  0  0  0  0  0  0  0  0
    5.3900   29.9940  -15.6130 H   0  0  0  0  0  0  0  0  0  0  0  0
    4.8060   27.9540  -15.3880 C   0  0  0  0  0  0  0  0  0  0  0  0
    4.4240   26.9490  -14.5030 C   0  0  0  0  0  0  0  0  0  0  0  0
    4.1970   25.9790  -14.8630 H   0  0  0  0  0  0  0  0  0  0  0  0
    4.3410   27.2310  -13.1450 C   0  0  0  0  0  0  0  0  0  0  0  0
    4.0540   26.4570  -12.4820 H   0  0  0  0  0  0  0  0  0  0  0  0
    4.8890   27.6820  -16.7210 O   0  0  0  0  0  0  0  0  0  0  0  0
    4.6760   26.7450  -16.9040 H   0  0  0  0  0  0  0  0  0  0  0  0
    3.7760   28.4860   -4.4360 O   0  0  0  0  0  0  0  0  0  0  0  0
    3.9460   29.4470   -4.5140 H   0  0  0  0  0  0  0  0  0  0  0  0
  1  2  1  0  0  0  0
  1  3  1  0  0  0  0
  1  4  1  0  0  0  0
  1  5  1  0  0  0  0
  5  6  1  0  0  0  0
  5 11  2  0  0  0  0
  6  7  1  0  0  0  0
  6  8  2  0  0  0  0
  8  9  1  0  0  0  0
  8 66  1  0  0  0  0
  9 10  2  0  0  0  0
  9 27  1  0  0  0  0
 10 11  1  0  0  0  0
 10 17  1  0  0  0  0
 11 12  1  0  0  0  0
 12 13  2  0  0  0  0
 12 14  1  0  0  0  0
 14 15  1  0  0  0  0
 14 16  2  0  0  0  0
 16 17  1  0  0  0  0
 16 18  1  0  0  0  0
 18 19  1  0  0  0  0
 18 20  1  0  0  0  0
 18 21  1  0  0  0  0
 21 22  2  0  0  0  0
 21 23  1  0  0  0  0
 23 24  1  0  0  0  0
 23 25  1  0  0  0  0
 23 26  1  0  0  0  0
 27 28  1  0  0  0  0
 27 29  1  0  0  0  0
 27 37  1  0  0  0  0
 29 30  1  0  0  0  0
 29 31  1  0  0  0  0
 29 47  1  0  0  0  0
 31 32  1  0  0  0  0
 31 33  1  0  0  0  0
 31 45  1  0  0  0  0
 33 34  1  0  0  0  0
 33 35  1  0  0  0  0
 33 43  1  0  0  0  0
 35 36  1  0  0  0  0
 35 37  1  0  0  0  0
 35 38  1  0  0  0  0
 38 39  1  0  0  0  0
 38 40  1  0  0  0  0
 38 41  1  0  0  0  0
 41 42  1  0  0  0  0
 43 44  1  0  0  0  0
 45 46  1  0  0  0  0
 47 48  1  0  0  0  0
 48 49  2  0  0  0  0
 48 50  1  0  0  0  0
 50 51  1  0  0  0  0
 50 52  2  0  0  0  0
 52 53  1  0  0  0  0
 52 54  1  0  0  0  0
 54 55  1  0  0  0  0
 54 62  2  0  0  0  0
 55 56  1  0  0  0  0
 55 57  2  0  0  0  0
 57 58  1  0  0  0  0
 57 59  1  0  0  0  0
 59 60  2  0  0  0  0
 59 64  1  0  0  0  0
 60 61  1  0  0  0  0
 60 62  1  0  0  0  0
 62 63  1  0  0  0  0
 64 65  1  0  0  0  0
 66 67  1  0  0  0  0
M  END
>  <rseq>
1

>  <mseq>
1

>  <S>
-5.7935405

>  <rmsd_refine>
1.4400891

>  <E_conf>
12.03557

>  <E_place>
-77.69561

>  <E_score1>
39.951096

>  <E_refine>
-28.432596

>  <E_score2>
-5.7935405

$$$$
Aloeresin A
  MOE2015           3D

 67 70  0  0  1  0  0  0  0  0999 V2000
    5.0550   24.3750   -5.1480 C   0  0  0  0  0  0  0  0  0  0  0  0
    4.1030   24.2000   -4.6480 H   0  0  0  0  0  0  0  0  0  0  0  0
    5.8660   23.9970   -4.5250 H   0  0  0  0  0  0  0  0  0  0  0  0
    5.0460   23.8840   -6.1220 H   0  0  0  0  0  0  0  0  0  0  0  0
    5.2630   25.8680   -5.3590 C   0  0  0  0  0  0  0  0  0  0  0  0
    4.2920   26.7210   -4.8510 C   0  0  0  0  0  0  0  0  0  0  0  0
    3.4500   26.3290   -4.3380 H   0  0  0  0  0  0  0  0  0  0  0  0
    4.4100   28.1030   -4.9940 C   0  0  0  0  0  0  0  0  0  0  0  0
    5.4830   28.6860   -5.6750 C   0  0  0  0  0  0  0  0  0  0  0  0
    6.4440   27.8150   -6.2030 C   0  0  0  0  0  0  0  0  0  0  0  0
    6.3860   26.4120   -6.0340 C   0  0  0  0  0  0  0  0  0  0  0  0
    7.4910   25.6190   -6.5640 C   0  0  0  0  0  0  0  0  0  0  0  0
    7.5620   24.4010   -6.4480 O   0  0  0  0  0  0  0  0  0  0  0  0
    8.5410   26.3000   -7.2660 C   0  0  0  0  0  0  0  0  0  0  0  0
    9.3380   25.7180   -7.6530 H   0  0  0  0  0  0  0  0  0  0  0  0
    8.5100   27.6410   -7.4400 C   0  0  0  0  0  0  0  0  0  0  0  0
    7.4870   28.3650   -6.9220 O   0  0  0  0  0  0  0  0  0  0  0  0
    9.5540   28.4470   -8.1800 C   0  0  0  0  0  0  0  0  0  0  0  0
   10.5240   28.2140   -7.7620 H   0  0  0  0  0  0  0  0  0  0  0  0
    9.2970   29.4970   -8.1340 H   0  0  0  0  0  0  0  0  0  0  0  0
    9.5150   28.0000   -9.6270 C   0  0  0  0  0  0  0  0  0  0  0  0
   10.3240   27.2170  -10.0390 O   0  0  0  0  0  0  0  0  0  0  0  0
    8.4300   28.5260  -10.5400 C   0  0  0  0  0  0  0  0  0  0  0  0
    7.4910   28.1900  -10.1270 H   0  0  0  0  0  0  0  0  0  0  0  0
    8.5980   28.1230  -11.5290 H   0  0  0  0  0  0  0  0  0  0  0  0
    8.4910   29.6040  -10.5340 H   0  0  0  0  0  0  0  0  0  0  0  0
    5.6140   30.2030   -5.8630 C   0  0  1  0  0  0  0  0  0  0  0  0
    6.6040   30.4860   -6.1940 H   0  0  0  0  0  0  0  0  0  0  0  0
    4.5500   30.6620   -6.8840 C   0  0  1  0  0  0  0  0  0  0  0  0
    3.5540   30.3480   -6.5730 H   0  0  0  0  0  0  0  0  0  0  0  0
    4.5900   32.2030   -6.9480 C   0  0  2  0  0  0  0  0  0  0  0  0
    5.5850   32.5290   -7.2540 H   0  0  0  0  0  0  0  0  0  0  0  0
    4.2610   32.7930   -5.5650 C   0  0  1  0  0  0  0  0  0  0  0  0
    3.2620   32.4670   -5.2710 H   0  0  0  0  0  0  0  0  0  0  0  0
    5.2870   32.2860   -4.5380 C   0  0  2  0  0  0  0  0  0  0  0  0
    6.2520   32.7070   -4.7950 H   0  0  0  0  0  0  0  0  0  0  0  0
    5.3150   30.8320   -4.5840 O   0  0  0  0  0  0  0  0  0  0  0  0
    4.9550   32.6910   -3.0930 C   0  0  0  0  0  0  0  0  0  0  0  0
    4.9750   33.7780   -3.0060 H   0  0  0  0  0  0  0  0  0  0  0  0
    5.7170   32.2780   -2.4320 H   0  0  0  0  0  0  0  0  0  0  0  0
    3.6860   32.2140   -2.6840 O   0  0  0  0  0  0  0  0  0  0  0  0
    3.0050   32.7360   -3.1170 H   0  0  0  0  0  0  0  0  0  0  0  0
    4.2930   34.2090   -5.6000 O   0  0  0  0  0  0  0  0  0  0  0  0
    5.1340   34.4980   -5.9680 H   0  0  0  0  0  0  0  0  0  0  0  0
    3.6460   32.6720   -7.8880 O   0  0  0  0  0  0  0  0  0  0  0  0
    2.7690   32.3760   -7.6280 H   0  0  0  0  0  0  0  0  0  0  0  0
    4.9200   30.1280   -8.2040 O   0  0  0  0  0  0  0  0  0  0  0  0
    3.9910   29.8110   -9.1460 C   0  0  0  0  0  0  0  0  0  0  0  0
    2.8060   29.8980   -8.8580 O   0  0  0  0  0  0  0  0  0  0  0  0
    4.4780   29.4010  -10.4460 C   0  0  0  0  0  0  0  0  0  0  0  0
    5.5250   29.2920  -10.5380 H   0  0  0  0  0  0  0  0  0  0  0  0
    3.6550   29.1920  -11.5080 C   0  0  0  0  0  0  0  0  0  0  0  0
    2.6130   29.3460  -11.3850 H   0  0  0  0  0  0  0  0  0  0  0  0
    4.0710   28.7860  -12.8430 C   0  0  0  0  0  0  0  0  0  0  0  0
    3.1580   28.9150  -13.9030 C   0  0  0  0  0  0  0  0  0  0  0  0
    2.1950   29.3180  -13.7190 H   0  0  0  0  0  0  0  0  0  0  0  0
    3.4980   28.5240  -15.1910 C   0  0  0  0  0  0  0  0  0  0  0  0
    2.8030   28.6250  -15.9840 H   0  0  0  0  0  0  0  0  0  0  0  0
    4.7620   27.9920  -15.4300 C   0  0  0  0  0  0  0  0  0  0  0  0
    5.6910   27.8540  -14.4000 C   0  0  0  0  0  0  0  0  0  0  0  0
    6.6500   27.4470  -14.5940 H   0  0  0  0  0  0  0  0  0  0  0  0
    5.3460   28.2540  -13.1140 C   0  0  0  0  0  0  0  0  0  0  0  0
    6.0530   28.1410  -12.3360 H   0  0  0  0  0  0  0  0  0  0  0  0
    5.0820   27.6000  -16.6940 O   0  0  0  0  0  0  0  0  0  0  0  0
    5.9780   27.2140  -16.7270 H   0  0  0  0  0  0  0  0  0  0  0  0
    3.4260   28.8570   -4.4260 O   0  0  0  0  0  0  0  0  0  0  0  0
    3.7050   29.7940   -4.3740 H   0  0  0  0  0  0  0  0  0  0  0  0
  1  2  1  0  0  0  0
  1  3  1  0  0  0  0
  1  4  1  0  0  0  0
  1  5  1  0  0  0  0
  5  6  1  0  0  0  0
  5 11  2  0  0  0  0
  6  7  1  0  0  0  0
  6  8  2  0  0  0  0
  8  9  1  0  0  0  0
  8 66  1  0  0  0  0
  9 10  2  0  0  0  0
  9 27  1  0  0  0  0
 10 11  1  0  0  0  0
 10 17  1  0  0  0  0
 11 12  1  0  0  0  0
 12 13  2  0  0  0  0
 12 14  1  0  0  0  0
 14 15  1  0  0  0  0
 14 16  2  0  0  0  0
 16 17  1  0  0  0  0
 16 18  1  0  0  0  0
 18 19  1  0  0  0  0
 18 20  1  0  0  0  0
 18 21  1  0  0  0  0
 21 22  2  0  0  0  0
 21 23  1  0  0  0  0
 23 24  1  0  0  0  0
 23 25  1  0  0  0  0
 23 26  1  0  0  0  0
 27 28  1  0  0  0  0
 27 29  1  0  0  0  0
 27 37  1  0  0  0  0
 29 30  1  0  0  0  0
 29 31  1  0  0  0  0
 29 47  1  0  0  0  0
 31 32  1  0  0  0  0
 31 33  1  0  0  0  0
 31 45  1  0  0  0  0
 33 34  1  0  0  0  0
 33 35  1  0  0  0  0
 33 43  1  0  0  0  0
 35 36  1  0  0  0  0
 35 37  1  0  0  0  0
 35 38  1  0  0  0  0
 38 39  1  0  0  0  0
 38 40  1  0  0  0  0
 38 41  1  0  0  0  0
 41 42  1  0  0  0  0
 43 44  1  0  0  0  0
 45 46  1  0  0  0  0
 47 48  1  0  0  0  0
 48 49  2  0  0  0  0
 48 50  1  0  0  0  0
 50 51  1  0  0  0  0
 50 52  2  0  0  0  0
 52 53  1  0  0  0  0
 52 54  1  0  0  0  0
 54 55  1  0  0  0  0
 54 62  2  0  0  0  0
 55 56  1  0  0  0  0
 55 57  2  0  0  0  0
 57 58  1  0  0  0  0
 57 59  1  0  0  0  0
 59 60  2  0  0  0  0
 59 64  1  0  0  0  0
 60 61  1  0  0  0  0
 60 62  1  0  0  0  0
 62 63  1  0  0  0  0
 64 65  1  0  0  0  0
 66 67  1  0  0  0  0
M  END
>  <rseq>
1

>  <mseq>
1

>  <S>
-5.6666183

>  <rmsd_refine>
1.5656369

>  <E_conf>
12.129766

>  <E_place>
-58.051041

>  <E_score1>
4.0921984

>  <E_refine>
-29.774166

>  <E_score2>
-5.6666183

$$$$
Aloeresin A
  MOE2015           3D

 67 70  0  0  1  0  0  0  0  0999 V2000
    5.3370   24.2740   -4.5800 C   0  0  0  0  0  0  0  0  0  0  0  0
    4.5030   24.1190   -3.8940 H   0  0  0  0  0  0  0  0  0  0  0  0
    6.2630   23.9570   -4.0990 H   0  0  0  0  0  0  0  0  0  0  0  0
    5.1590   23.7120   -5.4970 H   0  0  0  0  0  0  0  0  0  0  0  0
    5.4520   25.7490   -4.9290 C   0  0  0  0  0  0  0  0  0  0  0  0
    4.5120   26.6110   -4.3760 C   0  0  0  0  0  0  0  0  0  0  0  0
    3.7530   26.2360   -3.7370 H   0  0  0  0  0  0  0  0  0  0  0  0
    4.5490   27.9790   -4.6480 C   0  0  0  0  0  0  0  0  0  0  0  0
    5.5170   28.5370   -5.4870 C   0  0  0  0  0  0  0  0  0  0  0  0
    6.4660   27.6610   -6.0240 C   0  0  0  0  0  0  0  0  0  0  0  0
    6.4620   26.2700   -5.7790 C   0  0  0  0  0  0  0  0  0  0  0  0
    7.4990   25.4700   -6.4240 C   0  0  0  0  0  0  0  0  0  0  0  0
    7.5640   24.2490   -6.3310 O   0  0  0  0  0  0  0  0  0  0  0  0
    8.4790   26.1450   -7.2290 C   0  0  0  0  0  0  0  0  0  0  0  0
    9.2460   25.5610   -7.6680 H   0  0  0  0  0  0  0  0  0  0  0  0
    8.4230   27.4810   -7.4240 C   0  0  0  0  0  0  0  0  0  0  0  0
    7.4410   28.1990   -6.8290 O   0  0  0  0  0  0  0  0  0  0  0  0
    9.4140   28.2840   -8.2410 C   0  0  0  0  0  0  0  0  0  0  0  0
    9.9820   27.6170   -8.8760 H   0  0  0  0  0  0  0  0  0  0  0  0
   10.0340   28.8330   -7.5490 H   0  0  0  0  0  0  0  0  0  0  0  0
    8.6290   29.2600   -9.1000 C   0  0  0  0  0  0  0  0  0  0  0  0
    8.2850   30.3170   -8.6480 O   0  0  0  0  0  0  0  0  0  0  0  0
    8.2540   28.8890  -10.5160 C   0  0  0  0  0  0  0  0  0  0  0  0
    7.5380   28.0850  -10.4490 H   0  0  0  0  0  0  0  0  0  0  0  0
    9.1560   28.5670  -11.0180 H   0  0  0  0  0  0  0  0  0  0  0  0
    7.8260   29.7620  -10.9920 H   0  0  0  0  0  0  0  0  0  0  0  0
    5.5400   30.0250   -5.8600 C   0  0  1  0  0  0  0  0  0  0  0  0
    6.4700   30.3110   -6.3330 H   0  0  0  0  0  0  0  0  0  0  0  0
    4.3490   30.3210   -6.8020 C   0  0  1  0  0  0  0  0  0  0  0  0
    3.4000   30.0140   -6.3610 H   0  0  0  0  0  0  0  0  0  0  0  0
    4.2890   31.8400   -7.0480 C   0  0  2  0  0  0  0  0  0  0  0  0
    5.1890   32.1590   -7.5770 H   0  0  0  0  0  0  0  0  0  0  0  0
    4.1740   32.6150   -5.7240 C   0  0  1  0  0  0  0  0  0  0  0  0
    3.2310   32.3530   -5.2410 H   0  0  0  0  0  0  0  0  0  0  0  0
    5.3370   32.2390   -4.7930 C   0  0  2  0  0  0  0  0  0  0  0  0
    6.2620   32.5970   -5.2350 H   0  0  0  0  0  0  0  0  0  0  0  0
    5.3460   30.7960   -4.6440 O   0  0  0  0  0  0  0  0  0  0  0  0
    5.1760   32.8480   -3.3930 C   0  0  0  0  0  0  0  0  0  0  0  0
    4.2540   32.4810   -2.9410 H   0  0  0  0  0  0  0  0  0  0  0  0
    5.1260   33.9340   -3.4710 H   0  0  0  0  0  0  0  0  0  0  0  0
    6.2710   32.4990   -2.5710 O   0  0  0  0  0  0  0  0  0  0  0  0
    6.3640   31.5420   -2.5730 H   0  0  0  0  0  0  0  0  0  0  0  0
    4.1950   34.0090   -5.9800 O   0  0  0  0  0  0  0  0  0  0  0  0
    5.0770   34.2670   -6.2680 H   0  0  0  0  0  0  0  0  0  0  0  0
    3.1510   32.1260   -7.8380 O   0  0  0  0  0  0  0  0  0  0  0  0
    2.9840   33.0720   -7.7950 H   0  0  0  0  0  0  0  0  0  0  0  0
    4.5920   29.6840   -8.1000 O   0  0  0  0  0  0  0  0  0  0  0  0
    3.9490   28.5580   -8.5050 C   0  0  0  0  0  0  0  0  0  0  0  0
    3.3190   27.9140   -7.6800 O   0  0  0  0  0  0  0  0  0  0  0  0
    4.0240   28.1760   -9.8980 C   0  0  0  0  0  0  0  0  0  0  0  0
    3.4960   27.2940  -10.1490 H   0  0  0  0  0  0  0  0  0  0  0  0
    4.6930   28.8830  -10.8490 C   0  0  0  0  0  0  0  0  0  0  0  0
    5.2040   29.7660  -10.5660 H   0  0  0  0  0  0  0  0  0  0  0  0
    4.7640   28.5420  -12.2640 C   0  0  0  0  0  0  0  0  0  0  0  0
    5.3350   29.4660  -13.1550 C   0  0  0  0  0  0  0  0  0  0  0  0
    5.7110   30.3860  -12.7880 H   0  0  0  0  0  0  0  0  0  0  0  0
    5.4100   29.1980  -14.5150 C   0  0  0  0  0  0  0  0  0  0  0  0
    5.8270   29.9120  -15.1770 H   0  0  0  0  0  0  0  0  0  0  0  0
    4.9290   27.9840  -14.9990 C   0  0  0  0  0  0  0  0  0  0  0  0
    4.3660   27.0440  -14.1410 C   0  0  0  0  0  0  0  0  0  0  0  0
    4.0030   26.1230  -14.5200 H   0  0  0  0  0  0  0  0  0  0  0  0
    4.2800   27.3250  -12.7830 C   0  0  0  0  0  0  0  0  0  0  0  0
    3.8450   26.6050  -12.1420 H   0  0  0  0  0  0  0  0  0  0  0  0
    5.0100   27.7140  -16.3330 O   0  0  0  0  0  0  0  0  0  0  0  0
    4.6540   26.8260  -16.5360 H   0  0  0  0  0  0  0  0  0  0  0  0
    3.5940   28.7470   -4.0540 O   0  0  0  0  0  0  0  0  0  0  0  0
    3.7940   29.6940   -4.1960 H   0  0  0  0  0  0  0  0  0  0  0  0
  1  2  1  0  0  0  0
  1  3  1  0  0  0  0
  1  4  1  0  0  0  0
  1  5  1  0  0  0  0
  5  6  1  0  0  0  0
  5 11  2  0  0  0  0
  6  7  1  0  0  0  0
  6  8  2  0  0  0  0
  8  9  1  0  0  0  0
  8 66  1  0  0  0  0
  9 10  2  0  0  0  0
  9 27  1  0  0  0  0
 10 11  1  0  0  0  0
 10 17  1  0  0  0  0
 11 12  1  0  0  0  0
 12 13  2  0  0  0  0
 12 14  1  0  0  0  0
 14 15  1  0  0  0  0
 14 16  2  0  0  0  0
 16 17  1  0  0  0  0
 16 18  1  0  0  0  0
 18 19  1  0  0  0  0
 18 20  1  0  0  0  0
 18 21  1  0  0  0  0
 21 22  2  0  0  0  0
 21 23  1  0  0  0  0
 23 24  1  0  0  0  0
 23 25  1  0  0  0  0
 23 26  1  0  0  0  0
 27 28  1  0  0  0  0
 27 29  1  0  0  0  0
 27 37  1  0  0  0  0
 29 30  1  0  0  0  0
 29 31  1  0  0  0  0
 29 47  1  0  0  0  0
 31 32  1  0  0  0  0
 31 33  1  0  0  0  0
 31 45  1  0  0  0  0
 33 34  1  0  0  0  0
 33 35  1  0  0  0  0
 33 43  1  0  0  0  0
 35 36  1  0  0  0  0
 35 37  1  0  0  0  0
 35 38  1  0  0  0  0
 38 39  1  0  0  0  0
 38 40  1  0  0  0  0
 38 41  1  0  0  0  0
 41 42  1  0  0  0  0
 43 44  1  0  0  0  0
 45 46  1  0  0  0  0
 47 48  1  0  0  0  0
 48 49  2  0  0  0  0
 48 50  1  0  0  0  0
 50 51  1  0  0  0  0
 50 52  2  0  0  0  0
 52 53  1  0  0  0  0
 52 54  1  0  0  0  0
 54 55  1  0  0  0  0
 54 62  2  0  0  0  0
 55 56  1  0  0  0  0
 55 57  2  0  0  0  0
 57 58  1  0  0  0  0
 57 59  1  0  0  0  0
 59 60  2  0  0  0  0
 59 64  1  0  0  0  0
 60 61  1  0  0  0  0
 60 62  1  0  0  0  0
 62 63  1  0  0  0  0
 64 65  1  0  0  0  0
 66 67  1  0  0  0  0
M  END
>  <rseq>
1

>  <mseq>
1

>  <S>
-5.6427827

>  <rmsd_refine>
2.320281

>  <E_conf>
7.2707443

>  <E_place>
-95.208778

>  <E_score1>
7.8647408

>  <E_refine>
-26.274698

>  <E_score2>
-5.6427827

$$$$
Aloeresin A
  MOE2015           3D

 67 70  0  0  1  0  0  0  0  0999 V2000
    3.9560   34.3010   -5.7240 C   0  0  0  0  0  0  0  0  0  0  0  0
    4.6790   34.7160   -5.0220 H   0  0  0  0  0  0  0  0  0  0  0  0
    2.9500   34.4480   -5.3330 H   0  0  0  0  0  0  0  0  0  0  0  0
    4.0770   34.7850   -6.6940 H   0  0  0  0  0  0  0  0  0  0  0  0
    4.1980   32.8090   -5.8970 C   0  0  0  0  0  0  0  0  0  0  0  0
    5.2250   32.2420   -5.1530 C   0  0  0  0  0  0  0  0  0  0  0  0
    5.7930   32.8380   -4.4850 H   0  0  0  0  0  0  0  0  0  0  0  0
    5.5180   30.8830   -5.2620 C   0  0  0  0  0  0  0  0  0  0  0  0
    4.8400   30.0520   -6.1560 C   0  0  0  0  0  0  0  0  0  0  0  0
    3.7790   30.6220   -6.8680 C   0  0  0  0  0  0  0  0  0  0  0  0
    3.4250   31.9870   -6.7570 C   0  0  0  0  0  0  0  0  0  0  0  0
    2.2710   32.4500   -7.5230 C   0  0  0  0  0  0  0  0  0  0  0  0
    1.8970   33.6180   -7.5370 O   0  0  0  0  0  0  0  0  0  0  0  0
    1.5350   31.4870   -8.2920 C   0  0  0  0  0  0  0  0  0  0  0  0
    0.6770   31.8240   -8.8150 H   0  0  0  0  0  0  0  0  0  0  0  0
    1.9260   30.1930   -8.3500 C   0  0  0  0  0  0  0  0  0  0  0  0
    3.0380   29.7950   -7.6850 O   0  0  0  0  0  0  0  0  0  0  0  0
    1.2220   29.0980   -9.1230 C   0  0  0  0  0  0  0  0  0  0  0  0
    0.2080   29.4050   -9.3410 H   0  0  0  0  0  0  0  0  0  0  0  0
    1.2790   28.1730   -8.5640 H   0  0  0  0  0  0  0  0  0  0  0  0
    1.9920   28.9570  -10.4170 C   0  0  0  0  0  0  0  0  0  0  0  0
    2.8740   28.1500  -10.5040 O   0  0  0  0  0  0  0  0  0  0  0  0
    1.6490   29.8540  -11.5870 C   0  0  0  0  0  0  0  0  0  0  0  0
    0.6600   29.5760  -11.9220 H   0  0  0  0  0  0  0  0  0  0  0  0
    2.3850   29.7040  -12.3630 H   0  0  0  0  0  0  0  0  0  0  0  0
    1.6570   30.8730  -11.2280 H   0  0  0  0  0  0  0  0  0  0  0  0
    5.2390   28.5870   -6.3700 C   0  0  1  0  0  0  0  0  0  0  0  0
    4.5140   28.0500   -6.9670 H   0  0  0  0  0  0  0  0  0  0  0  0
    6.6270   28.5580   -7.0580 C   0  0  1  0  0  0  0  0  0  0  0  0
    7.3500   29.1750   -6.5260 H   0  0  0  0  0  0  0  0  0  0  0  0
    7.1310   27.1040   -7.0840 C   0  0  2  0  0  0  0  0  0  0  0  0
    6.4290   26.5050   -7.6620 H   0  0  0  0  0  0  0  0  0  0  0  0
    7.2080   26.5290   -5.6590 C   0  0  1  0  0  0  0  0  0  0  0  0
    7.9070   27.1280   -5.0750 H   0  0  0  0  0  0  0  0  0  0  0  0
    5.8130   26.5960   -5.0090 C   0  0  2  0  0  0  0  0  0  0  0  0
    5.1310   25.9410   -5.5540 H   0  0  0  0  0  0  0  0  0  0  0  0
    5.3620   27.9720   -5.0570 O   0  0  0  0  0  0  0  0  0  0  0  0
    5.8190   26.1720   -3.5300 C   0  0  0  0  0  0  0  0  0  0  0  0
    6.1030   25.1220   -3.4540 H   0  0  0  0  0  0  0  0  0  0  0  0
    4.8110   26.2860   -3.1300 H   0  0  0  0  0  0  0  0  0  0  0  0
    6.7090   26.9520   -2.7530 O   0  0  0  0  0  0  0  0  0  0  0  0
    7.6090   26.6820   -2.9500 H   0  0  0  0  0  0  0  0  0  0  0  0
    7.6560   25.1850   -5.6860 O   0  0  0  0  0  0  0  0  0  0  0  0
    7.2070   24.7160   -6.3930 H   0  0  0  0  0  0  0  0  0  0  0  0
    8.4030   27.0450   -7.7070 O   0  0  0  0  0  0  0  0  0  0  0  0
    8.9410   27.7780   -7.3970 H   0  0  0  0  0  0  0  0  0  0  0  0
    6.4460   28.9720   -8.4430 O   0  0  0  0  0  0  0  0  0  0  0  0
    7.3610   29.6710   -9.1640 C   0  0  0  0  0  0  0  0  0  0  0  0
    8.3480   30.1120   -8.5920 O   0  0  0  0  0  0  0  0  0  0  0  0
    7.1070   29.8540  -10.5770 C   0  0  0  0  0  0  0  0  0  0  0  0
    7.7460   30.5330  -11.0760 H   0  0  0  0  0  0  0  0  0  0  0  0
    6.1130   29.2030  -11.2390 C   0  0  0  0  0  0  0  0  0  0  0  0
    5.5130   28.5110  -10.7070 H   0  0  0  0  0  0  0  0  0  0  0  0
    5.7520   29.3780  -12.6370 C   0  0  0  0  0  0  0  0  0  0  0  0
    4.7670   28.5430  -13.1880 C   0  0  0  0  0  0  0  0  0  0  0  0
    4.3720   27.7450  -12.6130 H   0  0  0  0  0  0  0  0  0  0  0  0
    4.2830   28.7590  -14.4700 C   0  0  0  0  0  0  0  0  0  0  0  0
    3.5240   28.1380  -14.8700 H   0  0  0  0  0  0  0  0  0  0  0  0
    4.7960   29.8130  -15.2190 C   0  0  0  0  0  0  0  0  0  0  0  0
    5.8230   30.6140  -14.7260 C   0  0  0  0  0  0  0  0  0  0  0  0
    6.2250   31.3930  -15.3200 H   0  0  0  0  0  0  0  0  0  0  0  0
    6.3070   30.3850  -13.4460 C   0  0  0  0  0  0  0  0  0  0  0  0
    7.0860   30.9970  -13.0770 H   0  0  0  0  0  0  0  0  0  0  0  0
    4.2780   30.0650  -16.4450 O   0  0  0  0  0  0  0  0  0  0  0  0
    4.7210   30.8360  -16.8480 H   0  0  0  0  0  0  0  0  0  0  0  0
    6.4800   30.3920   -4.4360 O   0  0  0  0  0  0  0  0  0  0  0  0
    6.4310   29.4150   -4.4040 H   0  0  0  0  0  0  0  0  0  0  0  0
  1  2  1  0  0  0  0
  1  3  1  0  0  0  0
  1  4  1  0  0  0  0
  1  5  1  0  0  0  0
  5  6  1  0  0  0  0
  5 11  2  0  0  0  0
  6  7  1  0  0  0  0
  6  8  2  0  0  0  0
  8  9  1  0  0  0  0
  8 66  1  0  0  0  0
  9 10  2  0  0  0  0
  9 27  1  0  0  0  0
 10 11  1  0  0  0  0
 10 17  1  0  0  0  0
 11 12  1  0  0  0  0
 12 13  2  0  0  0  0
 12 14  1  0  0  0  0
 14 15  1  0  0  0  0
 14 16  2  0  0  0  0
 16 17  1  0  0  0  0
 16 18  1  0  0  0  0
 18 19  1  0  0  0  0
 18 20  1  0  0  0  0
 18 21  1  0  0  0  0
 21 22  2  0  0  0  0
 21 23  1  0  0  0  0
 23 24  1  0  0  0  0
 23 25  1  0  0  0  0
 23 26  1  0  0  0  0
 27 28  1  0  0  0  0
 27 29  1  0  0  0  0
 27 37  1  0  0  0  0
 29 30  1  0  0  0  0
 29 31  1  0  0  0  0
 29 47  1  0  0  0  0
 31 32  1  0  0  0  0
 31 33  1  0  0  0  0
 31 45  1  0  0  0  0
 33 34  1  0  0  0  0
 33 35  1  0  0  0  0
 33 43  1  0  0  0  0
 35 36  1  0  0  0  0
 35 37  1  0  0  0  0
 35 38  1  0  0  0  0
 38 39  1  0  0  0  0
 38 40  1  0  0  0  0
 38 41  1  0  0  0  0
 41 42  1  0  0  0  0
 43 44  1  0  0  0  0
 45 46  1  0  0  0  0
 47 48  1  0  0  0  0
 48 49  2  0  0  0  0
 48 50  1  0  0  0  0
 50 51  1  0  0  0  0
 50 52  2  0  0  0  0
 52 53  1  0  0  0  0
 52 54  1  0  0  0  0
 54 55  1  0  0  0  0
 54 62  2  0  0  0  0
 55 56  1  0  0  0  0
 55 57  2  0  0  0  0
 57 58  1  0  0  0  0
 57 59  1  0  0  0  0
 59 60  2  0  0  0  0
 59 64  1  0  0  0  0
 60 61  1  0  0  0  0
 60 62  1  0  0  0  0
 62 63  1  0  0  0  0
 64 65  1  0  0  0  0
 66 67  1  0  0  0  0
M  END
>  <rseq>
1

>  <mseq>
1

>  <S>
-5.5927591

>  <rmsd_refine>
1.1685915

>  <E_conf>
11.874253

>  <E_place>
-61.167133

>  <E_score1>
3.5514717

>  <E_refine>
-24.625614

>  <E_score2>
-5.5927591

$$$$
Aloeresin A
  MOE2015           3D

 67 70  0  0  1  0  0  0  0  0999 V2000
    5.6510   24.6490   -5.0690 C   0  0  0  0  0  0  0  0  0  0  0  0
    4.8040   24.3550   -4.4490 H   0  0  0  0  0  0  0  0  0  0  0  0
    6.5800   24.3830   -4.5640 H   0  0  0  0  0  0  0  0  0  0  0  0
    5.5760   24.1540   -6.0380 H   0  0  0  0  0  0  0  0  0  0  0  0
    5.6330   26.1530   -5.2890 C   0  0  0  0  0  0  0  0  0  0  0  0
    4.6560   26.8850   -4.6240 C   0  0  0  0  0  0  0  0  0  0  0  0
    3.9620   26.3970   -3.9880 H   0  0  0  0  0  0  0  0  0  0  0  0
    4.5750   28.2700   -4.7720 C   0  0  0  0  0  0  0  0  0  0  0  0
    5.4500   28.9720   -5.6060 C   0  0  0  0  0  0  0  0  0  0  0  0
    6.4070   28.2200   -6.2930 C   0  0  0  0  0  0  0  0  0  0  0  0
    6.5540   26.8250   -6.1330 C   0  0  0  0  0  0  0  0  0  0  0  0
    7.6460   26.1790   -6.8520 C   0  0  0  0  0  0  0  0  0  0  0  0
    7.9470   25.0010   -6.6950 O   0  0  0  0  0  0  0  0  0  0  0  0
    8.4110   26.9680   -7.7780 C   0  0  0  0  0  0  0  0  0  0  0  0
    9.1680   26.4810   -8.3390 H   0  0  0  0  0  0  0  0  0  0  0  0
    8.1780   28.2920   -7.9220 C   0  0  0  0  0  0  0  0  0  0  0  0
    7.2220   28.8880   -7.1760 O   0  0  0  0  0  0  0  0  0  0  0  0
    8.9270   29.2290   -8.8420 C   0  0  0  0  0  0  0  0  0  0  0  0
    9.7100   28.6850   -9.3530 H   0  0  0  0  0  0  0  0  0  0  0  0
    9.2880   30.0570   -8.2520 H   0  0  0  0  0  0  0  0  0  0  0  0
    7.9400   29.7750   -9.8520 C   0  0  0  0  0  0  0  0  0  0  0  0
    7.2800   30.7370   -9.5790 O   0  0  0  0  0  0  0  0  0  0  0  0
    7.7840   29.1080  -11.1990 C   0  0  0  0  0  0  0  0  0  0  0  0
    8.7720   28.8530  -11.5530 H   0  0  0  0  0  0  0  0  0  0  0  0
    7.2970   29.8090  -11.8630 H   0  0  0  0  0  0  0  0  0  0  0  0
    7.1860   28.2240  -11.0450 H   0  0  0  0  0  0  0  0  0  0  0  0
    5.3870   30.4880   -5.8090 C   0  0  1  0  0  0  0  0  0  0  0  0
    6.3010   30.8730   -6.2400 H   0  0  0  0  0  0  0  0  0  0  0  0
    4.1850   30.8260   -6.7180 C   0  0  1  0  0  0  0  0  0  0  0  0
    3.2530   30.4060   -6.3370 H   0  0  0  0  0  0  0  0  0  0  0  0
    4.0520   32.3590   -6.7910 C   0  0  2  0  0  0  0  0  0  0  0  0
    4.9280   32.7680   -7.2980 H   0  0  0  0  0  0  0  0  0  0  0  0
    3.9390   32.9960   -5.3920 C   0  0  1  0  0  0  0  0  0  0  0  0
    3.0000   32.6740   -4.9400 H   0  0  0  0  0  0  0  0  0  0  0  0
    5.1110   32.5470   -4.5000 C   0  0  2  0  0  0  0  0  0  0  0  0
    6.0350   32.9650   -4.8920 H   0  0  0  0  0  0  0  0  0  0  0  0
    5.1610   31.1040   -4.5180 O   0  0  0  0  0  0  0  0  0  0  0  0
    4.9690   32.9880   -3.0340 C   0  0  0  0  0  0  0  0  0  0  0  0
    4.9700   34.0770   -2.9820 H   0  0  0  0  0  0  0  0  0  0  0  0
    5.8270   32.6150   -2.4730 H   0  0  0  0  0  0  0  0  0  0  0  0
    3.7830   32.4940   -2.4380 O   0  0  0  0  0  0  0  0  0  0  0  0
    3.0310   32.9370   -2.8370 H   0  0  0  0  0  0  0  0  0  0  0  0
    3.9460   34.4100   -5.4920 O   0  0  0  0  0  0  0  0  0  0  0  0
    4.7260   34.6870   -5.9810 H   0  0  0  0  0  0  0  0  0  0  0  0
    2.8910   32.6630   -7.5440 O   0  0  0  0  0  0  0  0  0  0  0  0
    2.9100   32.1590   -8.3610 H   0  0  0  0  0  0  0  0  0  0  0  0
    4.4950   30.3830   -8.0740 O   0  0  0  0  0  0  0  0  0  0  0  0
    3.9850   29.2860   -8.6790 C   0  0  0  0  0  0  0  0  0  0  0  0
    3.2920   28.5150   -8.0320 O   0  0  0  0  0  0  0  0  0  0  0  0
    4.3040   29.1340  -10.0810 C   0  0  0  0  0  0  0  0  0  0  0  0
    4.9470   29.8700  -10.4780 H   0  0  0  0  0  0  0  0  0  0  0  0
    3.8330   28.1330  -10.8700 C   0  0  0  0  0  0  0  0  0  0  0  0
    3.2030   27.3930  -10.4450 H   0  0  0  0  0  0  0  0  0  0  0  0
    4.1380   27.9820  -12.2860 C   0  0  0  0  0  0  0  0  0  0  0  0
    3.8550   26.7610  -12.9220 C   0  0  0  0  0  0  0  0  0  0  0  0
    3.4180   25.9700  -12.3680 H   0  0  0  0  0  0  0  0  0  0  0  0
    4.1440   26.5720  -14.2670 C   0  0  0  0  0  0  0  0  0  0  0  0
    3.9270   25.6490  -14.7390 H   0  0  0  0  0  0  0  0  0  0  0  0
    4.7210   27.6110  -14.9930 C   0  0  0  0  0  0  0  0  0  0  0  0
    5.0030   28.8350  -14.3940 C   0  0  0  0  0  0  0  0  0  0  0  0
    5.4340   29.6220  -14.9580 H   0  0  0  0  0  0  0  0  0  0  0  0
    4.7080   29.0190  -13.0490 C   0  0  0  0  0  0  0  0  0  0  0  0
    4.9130   29.9590  -12.6090 H   0  0  0  0  0  0  0  0  0  0  0  0
    5.0060   27.4250  -16.3110 O   0  0  0  0  0  0  0  0  0  0  0  0
    5.4080   28.2270  -16.6960 H   0  0  0  0  0  0  0  0  0  0  0  0
    3.6000   28.9060   -4.0640 O   0  0  0  0  0  0  0  0  0  0  0  0
    3.7470   29.8740   -4.0840 H   0  0  0  0  0  0  0  0  0  0  0  0
  1  2  1  0  0  0  0
  1  3  1  0  0  0  0
  1  4  1  0  0  0  0
  1  5  1  0  0  0  0
  5  6  1  0  0  0  0
  5 11  2  0  0  0  0
  6  7  1  0  0  0  0
  6  8  2  0  0  0  0
  8  9  1  0  0  0  0
  8 66  1  0  0  0  0
  9 10  2  0  0  0  0
  9 27  1  0  0  0  0
 10 11  1  0  0  0  0
 10 17  1  0  0  0  0
 11 12  1  0  0  0  0
 12 13  2  0  0  0  0
 12 14  1  0  0  0  0
 14 15  1  0  0  0  0
 14 16  2  0  0  0  0
 16 17  1  0  0  0  0
 16 18  1  0  0  0  0
 18 19  1  0  0  0  0
 18 20  1  0  0  0  0
 18 21  1  0  0  0  0
 21 22  2  0  0  0  0
 21 23  1  0  0  0  0
 23 24  1  0  0  0  0
 23 25  1  0  0  0  0
 23 26  1  0  0  0  0
 27 28  1  0  0  0  0
 27 29  1  0  0  0  0
 27 37  1  0  0  0  0
 29 30  1  0  0  0  0
 29 31  1  0  0  0  0
 29 47  1  0  0  0  0
 31 32  1  0  0  0  0
 31 33  1  0  0  0  0
 31 45  1  0  0  0  0
 33 34  1  0  0  0  0
 33 35  1  0  0  0  0
 33 43  1  0  0  0  0
 35 36  1  0  0  0  0
 35 37  1  0  0  0  0
 35 38  1  0  0  0  0
 38 39  1  0  0  0  0
 38 40  1  0  0  0  0
 38 41  1  0  0  0  0
 41 42  1  0  0  0  0
 43 44  1  0  0  0  0
 45 46  1  0  0  0  0
 47 48  1  0  0  0  0
 48 49  2  0  0  0  0
 48 50  1  0  0  0  0
 50 51  1  0  0  0  0
 50 52  2  0  0  0  0
 52 53  1  0  0  0  0
 52 54  1  0  0  0  0
 54 55  1  0  0  0  0
 54 62  2  0  0  0  0
 55 56  1  0  0  0  0
 55 57  2  0  0  0  0
 57 58  1  0  0  0  0
 57 59  1  0  0  0  0
 59 60  2  0  0  0  0
 59 64  1  0  0  0  0
 60 61  1  0  0  0  0
 60 62  1  0  0  0  0
 62 63  1  0  0  0  0
 64 65  1  0  0  0  0
 66 67  1  0  0  0  0
M  END
>  <rseq>
1

>  <mseq>
1

>  <S>
-5.5166736

>  <rmsd_refine>
1.0359271

>  <E_conf>
7.8941717

>  <E_place>
-71.90036

>  <E_score1>
12.252275

>  <E_refine>
-25.399603

>  <E_score2>
-5.5166736

$$$$
Aloeresin A
  MOE2015           3D

 67 70  0  0  1  0  0  0  0  0999 V2000
    9.2910   26.8390   -8.0170 C   0  0  0  0  0  0  0  0  0  0  0  0
    9.6020   25.8570   -7.6590 H   0  0  0  0  0  0  0  0  0  0  0  0
   10.0350   27.5820   -7.7300 H   0  0  0  0  0  0  0  0  0  0  0  0
    9.1690   26.8080   -9.1000 H   0  0  0  0  0  0  0  0  0  0  0  0
    7.9580   27.2200   -7.3900 C   0  0  0  0  0  0  0  0  0  0  0  0
    7.3370   26.2790   -6.5760 C   0  0  0  0  0  0  0  0  0  0  0  0
    7.7880   25.3340   -6.4120 H   0  0  0  0  0  0  0  0  0  0  0  0
    6.1100   26.5560   -5.9670 C   0  0  0  0  0  0  0  0  0  0  0  0
    5.4730   27.7910   -6.1260 C   0  0  0  0  0  0  0  0  0  0  0  0
    6.1230   28.7340   -6.9270 C   0  0  0  0  0  0  0  0  0  0  0  0
    7.3320   28.4730   -7.6070 C   0  0  0  0  0  0  0  0  0  0  0  0
    7.8260   29.5080   -8.5090 C   0  0  0  0  0  0  0  0  0  0  0  0
    8.8270   29.3700   -9.2020 O   0  0  0  0  0  0  0  0  0  0  0  0
    7.0950   30.7410   -8.5930 C   0  0  0  0  0  0  0  0  0  0  0  0
    7.4560   31.4840   -9.2530 H   0  0  0  0  0  0  0  0  0  0  0  0
    5.9830   30.9510   -7.8510 C   0  0  0  0  0  0  0  0  0  0  0  0
    5.5150   29.9550   -7.0720 O   0  0  0  0  0  0  0  0  0  0  0  0
    5.1630   32.2300   -7.8190 C   0  0  0  0  0  0  0  0  0  0  0  0
    4.1790   32.0200   -8.2130 H   0  0  0  0  0  0  0  0  0  0  0  0
    5.6740   32.9980   -8.3840 H   0  0  0  0  0  0  0  0  0  0  0  0
    5.0080   32.7370   -6.3900 C   0  0  0  0  0  0  0  0  0  0  0  0
    5.5610   32.2240   -5.4570 O   0  0  0  0  0  0  0  0  0  0  0  0
    4.1330   33.9500   -6.1670 C   0  0  0  0  0  0  0  0  0  0  0  0
    4.5340   34.7490   -6.7750 H   0  0  0  0  0  0  0  0  0  0  0  0
    4.1650   34.2010   -5.1150 H   0  0  0  0  0  0  0  0  0  0  0  0
    3.1330   33.6870   -6.4830 H   0  0  0  0  0  0  0  0  0  0  0  0
    4.0820   28.1280   -5.5670 C   0  0  1  0  0  0  0  0  0  0  0  0
    3.9480   29.1960   -5.4580 H   0  0  0  0  0  0  0  0  0  0  0  0
    3.0040   27.5450   -6.5200 C   0  0  1  0  0  0  0  0  0  0  0  0
    3.1350   26.4700   -6.6570 H   0  0  0  0  0  0  0  0  0  0  0  0
    1.6220   27.7940   -5.8880 C   0  0  2  0  0  0  0  0  0  0  0  0
    1.4540   28.8700   -5.8160 H   0  0  0  0  0  0  0  0  0  0  0  0
    1.5350   27.1820   -4.4780 C   0  0  1  0  0  0  0  0  0  0  0  0
    1.6220   26.0980   -4.5600 H   0  0  0  0  0  0  0  0  0  0  0  0
    2.6720   27.7230   -3.5890 C   0  0  2  0  0  0  0  0  0  0  0  0
    2.5130   28.7900   -3.4200 H   0  0  0  0  0  0  0  0  0  0  0  0
    3.9260   27.4880   -4.2750 O   0  0  0  0  0  0  0  0  0  0  0  0
    2.7590   27.0220   -2.2240 C   0  0  0  0  0  0  0  0  0  0  0  0
    1.8410   27.2000   -1.6630 H   0  0  0  0  0  0  0  0  0  0  0  0
    3.5930   27.4500   -1.6650 H   0  0  0  0  0  0  0  0  0  0  0  0
    2.9660   25.6270   -2.3510 O   0  0  0  0  0  0  0  0  0  0  0  0
    2.1450   25.2170   -2.6330 H   0  0  0  0  0  0  0  0  0  0  0  0
    0.2900   27.5120   -3.8910 O   0  0  0  0  0  0  0  0  0  0  0  0
   -0.4090   27.2620   -4.5020 H   0  0  0  0  0  0  0  0  0  0  0  0
    0.6200   27.2260   -6.7160 O   0  0  0  0  0  0  0  0  0  0  0  0
    0.8320   26.3040   -6.8770 H   0  0  0  0  0  0  0  0  0  0  0  0
    3.0290   28.2820   -7.8010 O   0  0  0  0  0  0  0  0  0  0  0  0
    3.7890   27.9010   -8.8580 C   0  0  0  0  0  0  0  0  0  0  0  0
    4.4460   26.8760   -8.7560 O   0  0  0  0  0  0  0  0  0  0  0  0
    3.7950   28.7380  -10.0380 C   0  0  0  0  0  0  0  0  0  0  0  0
    2.9260   29.3180  -10.2120 H   0  0  0  0  0  0  0  0  0  0  0  0
    4.8560   28.7840  -10.8900 C   0  0  0  0  0  0  0  0  0  0  0  0
    5.7430   28.2690  -10.6290 H   0  0  0  0  0  0  0  0  0  0  0  0
    4.9090   29.4940  -12.1560 C   0  0  0  0  0  0  0  0  0  0  0  0
    6.1600   29.7900  -12.7230 C   0  0  0  0  0  0  0  0  0  0  0  0
    7.0470   29.5070  -12.2160 H   0  0  0  0  0  0  0  0  0  0  0  0
    6.2510   30.4540  -13.9390 C   0  0  0  0  0  0  0  0  0  0  0  0
    7.1980   30.6770  -14.3580 H   0  0  0  0  0  0  0  0  0  0  0  0
    5.0850   30.8280  -14.6010 C   0  0  0  0  0  0  0  0  0  0  0  0
    3.8320   30.5300  -14.0720 C   0  0  0  0  0  0  0  0  0  0  0  0
    2.9510   30.8110  -14.5890 H   0  0  0  0  0  0  0  0  0  0  0  0
    3.7460   29.8630  -12.8550 C   0  0  0  0  0  0  0  0  0  0  0  0
    2.7920   29.6320  -12.4590 H   0  0  0  0  0  0  0  0  0  0  0  0
    5.1730   31.4980  -15.7830 O   0  0  0  0  0  0  0  0  0  0  0  0
    4.2820   31.7240  -16.1130 H   0  0  0  0  0  0  0  0  0  0  0  0
    5.5600   25.5590   -5.2220 O   0  0  0  0  0  0  0  0  0  0  0  0
    4.8000   25.9050   -4.7100 H   0  0  0  0  0  0  0  0  0  0  0  0
  1  2  1  0  0  0  0
  1  3  1  0  0  0  0
  1  4  1  0  0  0  0
  1  5  1  0  0  0  0
  5  6  1  0  0  0  0
  5 11  2  0  0  0  0
  6  7  1  0  0  0  0
  6  8  2  0  0  0  0
  8  9  1  0  0  0  0
  8 66  1  0  0  0  0
  9 10  2  0  0  0  0
  9 27  1  0  0  0  0
 10 11  1  0  0  0  0
 10 17  1  0  0  0  0
 11 12  1  0  0  0  0
 12 13  2  0  0  0  0
 12 14  1  0  0  0  0
 14 15  1  0  0  0  0
 14 16  2  0  0  0  0
 16 17  1  0  0  0  0
 16 18  1  0  0  0  0
 18 19  1  0  0  0  0
 18 20  1  0  0  0  0
 18 21  1  0  0  0  0
 21 22  2  0  0  0  0
 21 23  1  0  0  0  0
 23 24  1  0  0  0  0
 23 25  1  0  0  0  0
 23 26  1  0  0  0  0
 27 28  1  0  0  0  0
 27 29  1  0  0  0  0
 27 37  1  0  0  0  0
 29 30  1  0  0  0  0
 29 31  1  0  0  0  0
 29 47  1  0  0  0  0
 31 32  1  0  0  0  0
 31 33  1  0  0  0  0
 31 45  1  0  0  0  0
 33 34  1  0  0  0  0
 33 35  1  0  0  0  0
 33 43  1  0  0  0  0
 35 36  1  0  0  0  0
 35 37  1  0  0  0  0
 35 38  1  0  0  0  0
 38 39  1  0  0  0  0
 38 40  1  0  0  0  0
 38 41  1  0  0  0  0
 41 42  1  0  0  0  0
 43 44  1  0  0  0  0
 45 46  1  0  0  0  0
 47 48  1  0  0  0  0
 48 49  2  0  0  0  0
 48 50  1  0  0  0  0
 50 51  1  0  0  0  0
 50 52  2  0  0  0  0
 52 53  1  0  0  0  0
 52 54  1  0  0  0  0
 54 55  1  0  0  0  0
 54 62  2  0  0  0  0
 55 56  1  0  0  0  0
 55 57  2  0  0  0  0
 57 58  1  0  0  0  0
 57 59  1  0  0  0  0
 59 60  2  0  0  0  0
 59 64  1  0  0  0  0
 60 61  1  0  0  0  0
 60 62  1  0  0  0  0
 62 63  1  0  0  0  0
 64 65  1  0  0  0  0
 66 67  1  0  0  0  0
M  END
>  <rseq>
1

>  <mseq>
1

>  <S>
-5.4934912

>  <rmsd_refine>
1.2308601

>  <E_conf>
11.957213

>  <E_place>
-47.791191

>  <E_score1>
2.9643004

>  <E_refine>
-28.777197

>  <E_score2>
-5.4934912

$$$$
Aloeresin A
  MOE2015           3D

 67 70  0  0  1  0  0  0  0  0999 V2000
    6.8680   20.6190   -6.2320 C   0  0  0  0  0  0  0  0  0  0  0  0
    5.9320   20.2270   -5.8320 H   0  0  0  0  0  0  0  0  0  0  0  0
    7.6940   19.9860   -5.9050 H   0  0  0  0  0  0  0  0  0  0  0  0
    6.8070   20.6550   -7.3200 H   0  0  0  0  0  0  0  0  0  0  0  0
    7.1040   22.0290   -5.7110 C   0  0  0  0  0  0  0  0  0  0  0  0
    6.1800   22.5330   -4.8050 C   0  0  0  0  0  0  0  0  0  0  0  0
    5.3590   21.9400   -4.4920 H   0  0  0  0  0  0  0  0  0  0  0  0
    6.3230   23.8170   -4.2800 C   0  0  0  0  0  0  0  0  0  0  0  0
    7.3600   24.6660   -4.6770 C   0  0  0  0  0  0  0  0  0  0  0  0
    8.2910   24.1450   -5.5860 C   0  0  0  0  0  0  0  0  0  0  0  0
    8.2090   22.8280   -6.0990 C   0  0  0  0  0  0  0  0  0  0  0  0
    9.2770   22.3790   -6.9890 C   0  0  0  0  0  0  0  0  0  0  0  0
    9.3180   21.2570   -7.4830 O   0  0  0  0  0  0  0  0  0  0  0  0
   10.3200   23.3070   -7.3210 C   0  0  0  0  0  0  0  0  0  0  0  0
   11.0810   22.9780   -7.9790 H   0  0  0  0  0  0  0  0  0  0  0  0
   10.3260   24.5650   -6.8230 C   0  0  0  0  0  0  0  0  0  0  0  0
    9.3340   24.9600   -5.9830 O   0  0  0  0  0  0  0  0  0  0  0  0
   11.3730   25.6140   -7.1360 C   0  0  0  0  0  0  0  0  0  0  0  0
   12.1840   25.1600   -7.6900 H   0  0  0  0  0  0  0  0  0  0  0  0
   11.6970   26.0780   -6.2140 H   0  0  0  0  0  0  0  0  0  0  0  0
   10.6850   26.6400   -8.0140 C   0  0  0  0  0  0  0  0  0  0  0  0
   10.5660   26.4510   -9.1920 O   0  0  0  0  0  0  0  0  0  0  0  0
   10.1090   27.8890   -7.3860 C   0  0  0  0  0  0  0  0  0  0  0  0
    9.3050   27.5800   -6.7340 H   0  0  0  0  0  0  0  0  0  0  0  0
   10.9080   28.3610   -6.8320 H   0  0  0  0  0  0  0  0  0  0  0  0
    9.7510   28.5290   -8.1780 H   0  0  0  0  0  0  0  0  0  0  0  0
    7.4950   26.0990   -4.1450 C   0  0  1  0  0  0  0  0  0  0  0  0
    8.4220   26.5570   -4.4580 H   0  0  0  0  0  0  0  0  0  0  0  0
    6.2930   26.9470   -4.6210 C   0  0  1  0  0  0  0  0  0  0  0  0
    5.3480   26.5030   -4.3140 H   0  0  0  0  0  0  0  0  0  0  0  0
    6.3940   28.3390   -3.9710 C   0  0  2  0  0  0  0  0  0  0  0  0
    7.3170   28.8140   -4.2970 H   0  0  0  0  0  0  0  0  0  0  0  0
    6.3960   28.2170   -2.4360 C   0  0  1  0  0  0  0  0  0  0  0  0
    5.4360   27.8040   -2.1230 H   0  0  0  0  0  0  0  0  0  0  0  0
    7.5270   27.2820   -1.9630 C   0  0  2  0  0  0  0  0  0  0  0  0
    8.4860   27.7670   -2.1400 H   0  0  0  0  0  0  0  0  0  0  0  0
    7.4330   26.0280   -2.6950 O   0  0  0  0  0  0  0  0  0  0  0  0
    7.4350   26.9440   -0.4660 C   0  0  0  0  0  0  0  0  0  0  0  0
    7.5360   27.8580    0.1210 H   0  0  0  0  0  0  0  0  0  0  0  0
    8.2560   26.2760   -0.2070 H   0  0  0  0  0  0  0  0  0  0  0  0
    6.2120   26.3110   -0.1340 O   0  0  0  0  0  0  0  0  0  0  0  0
    5.5140   26.9710   -0.1270 H   0  0  0  0  0  0  0  0  0  0  0  0
    6.5640   29.4910   -1.8390 O   0  0  0  0  0  0  0  0  0  0  0  0
    7.3650   29.9000   -2.1790 H   0  0  0  0  0  0  0  0  0  0  0  0
    5.3050   29.1380   -4.3990 O   0  0  0  0  0  0  0  0  0  0  0  0
    4.4900   28.7800   -4.0370 H   0  0  0  0  0  0  0  0  0  0  0  0
    6.3920   27.1410   -6.0690 O   0  0  0  0  0  0  0  0  0  0  0  0
    5.3210   26.9710   -6.8870 C   0  0  0  0  0  0  0  0  0  0  0  0
    4.3570   26.3470   -6.4710 O   0  0  0  0  0  0  0  0  0  0  0  0
    5.3600   27.5420   -8.2140 C   0  0  0  0  0  0  0  0  0  0  0  0
    4.4950   27.3690   -8.7990 H   0  0  0  0  0  0  0  0  0  0  0  0
    6.4060   28.2520   -8.7160 C   0  0  0  0  0  0  0  0  0  0  0  0
    7.2680   28.3990   -8.1180 H   0  0  0  0  0  0  0  0  0  0  0  0
    6.4530   28.8240  -10.0530 C   0  0  0  0  0  0  0  0  0  0  0  0
    7.6920   29.2120  -10.5890 C   0  0  0  0  0  0  0  0  0  0  0  0
    8.5730   29.0980  -10.0140 H   0  0  0  0  0  0  0  0  0  0  0  0
    7.7830   29.7320  -11.8720 C   0  0  0  0  0  0  0  0  0  0  0  0
    8.7220   30.0130  -12.2670 H   0  0  0  0  0  0  0  0  0  0  0  0
    6.6290   29.8740  -12.6350 C   0  0  0  0  0  0  0  0  0  0  0  0
    5.3840   29.5100  -12.1280 C   0  0  0  0  0  0  0  0  0  0  0  0
    4.5100   29.6300  -12.7150 H   0  0  0  0  0  0  0  0  0  0  0  0
    5.2990   28.9930  -10.8420 C   0  0  0  0  0  0  0  0  0  0  0  0
    4.3470   28.7300  -10.4610 H   0  0  0  0  0  0  0  0  0  0  0  0
    6.7190   30.3810  -13.8950 O   0  0  0  0  0  0  0  0  0  0  0  0
    5.8360   30.4360  -14.3080 H   0  0  0  0  0  0  0  0  0  0  0  0
    5.4090   24.1950   -3.3410 O   0  0  0  0  0  0  0  0  0  0  0  0
    5.7170   24.9960   -2.8710 H   0  0  0  0  0  0  0  0  0  0  0  0
  1  2  1  0  0  0  0
  1  3  1  0  0  0  0
  1  4  1  0  0  0  0
  1  5  1  0  0  0  0
  5  6  1  0  0  0  0
  5 11  2  0  0  0  0
  6  7  1  0  0  0  0
  6  8  2  0  0  0  0
  8  9  1  0  0  0  0
  8 66  1  0  0  0  0
  9 10  2  0  0  0  0
  9 27  1  0  0  0  0
 10 11  1  0  0  0  0
 10 17  1  0  0  0  0
 11 12  1  0  0  0  0
 12 13  2  0  0  0  0
 12 14  1  0  0  0  0
 14 15  1  0  0  0  0
 14 16  2  0  0  0  0
 16 17  1  0  0  0  0
 16 18  1  0  0  0  0
 18 19  1  0  0  0  0
 18 20  1  0  0  0  0
 18 21  1  0  0  0  0
 21 22  2  0  0  0  0
 21 23  1  0  0  0  0
 23 24  1  0  0  0  0
 23 25  1  0  0  0  0
 23 26  1  0  0  0  0
 27 28  1  0  0  0  0
 27 29  1  0  0  0  0
 27 37  1  0  0  0  0
 29 30  1  0  0  0  0
 29 31  1  0  0  0  0
 29 47  1  0  0  0  0
 31 32  1  0  0  0  0
 31 33  1  0  0  0  0
 31 45  1  0  0  0  0
 33 34  1  0  0  0  0
 33 35  1  0  0  0  0
 33 43  1  0  0  0  0
 35 36  1  0  0  0  0
 35 37  1  0  0  0  0
 35 38  1  0  0  0  0
 38 39  1  0  0  0  0
 38 40  1  0  0  0  0
 38 41  1  0  0  0  0
 41 42  1  0  0  0  0
 43 44  1  0  0  0  0
 45 46  1  0  0  0  0
 47 48  1  0  0  0  0
 48 49  2  0  0  0  0
 48 50  1  0  0  0  0
 50 51  1  0  0  0  0
 50 52  2  0  0  0  0
 52 53  1  0  0  0  0
 52 54  1  0  0  0  0
 54 55  1  0  0  0  0
 54 62  2  0  0  0  0
 55 56  1  0  0  0  0
 55 57  2  0  0  0  0
 57 58  1  0  0  0  0
 57 59  1  0  0  0  0
 59 60  2  0  0  0  0
 59 64  1  0  0  0  0
 60 61  1  0  0  0  0
 60 62  1  0  0  0  0
 62 63  1  0  0  0  0
 64 65  1  0  0  0  0
 66 67  1  0  0  0  0
M  END
>  <rseq>
1

>  <mseq>
1

>  <S>
-5.4033313

>  <rmsd_refine>
0.78486347

>  <E_conf>
12.807108

>  <E_place>
-51.914955

>  <E_score1>
5.7872434

>  <E_refine>
-22.056433

>  <E_score2>
-5.4033313

$$$$
Aloeresin A
  MOE2015           3D

 67 70  0  0  1  0  0  0  0  0999 V2000
    4.2100   29.8090  -14.1820 C   0  0  0  0  0  0  0  0  0  0  0  0
    3.2390   29.7600  -14.6760 H   0  0  0  0  0  0  0  0  0  0  0  0
    4.8880   29.0870  -14.6370 H   0  0  0  0  0  0  0  0  0  0  0  0
    4.6030   30.8230  -14.2650 H   0  0  0  0  0  0  0  0  0  0  0  0
    4.0560   29.4670  -12.7080 C   0  0  0  0  0  0  0  0  0  0  0  0
    2.8020   29.0550  -12.2720 C   0  0  0  0  0  0  0  0  0  0  0  0
    2.0010   28.9650  -12.9610 H   0  0  0  0  0  0  0  0  0  0  0  0
    2.5770   28.7420  -10.9300 C   0  0  0  0  0  0  0  0  0  0  0  0
    3.5710   28.8940   -9.9610 C   0  0  0  0  0  0  0  0  0  0  0  0
    4.8350   29.2890  -10.4190 C   0  0  0  0  0  0  0  0  0  0  0  0
    5.1230   29.5480  -11.7780 C   0  0  0  0  0  0  0  0  0  0  0  0
    6.5050   29.8790  -12.1260 C   0  0  0  0  0  0  0  0  0  0  0  0
    6.8820   30.0740  -13.2770 O   0  0  0  0  0  0  0  0  0  0  0  0
    7.4670   29.9750  -11.0640 C   0  0  0  0  0  0  0  0  0  0  0  0
    8.4630   30.2240  -11.3220 H   0  0  0  0  0  0  0  0  0  0  0  0
    7.1110   29.7520   -9.7770 C   0  0  0  0  0  0  0  0  0  0  0  0
    5.8360   29.4170   -9.4850 O   0  0  0  0  0  0  0  0  0  0  0  0
    8.0220   29.8220   -8.5720 C   0  0  0  0  0  0  0  0  0  0  0  0
    7.4500   30.1360   -7.7090 H   0  0  0  0  0  0  0  0  0  0  0  0
    8.8530   30.4730   -8.7890 H   0  0  0  0  0  0  0  0  0  0  0  0
    8.5370   28.4130   -8.3560 C   0  0  0  0  0  0  0  0  0  0  0  0
    9.5830   28.0800   -8.8350 O   0  0  0  0  0  0  0  0  0  0  0  0
    7.7230   27.4240   -7.5500 C   0  0  0  0  0  0  0  0  0  0  0  0
    6.7730   27.3010   -8.0500 H   0  0  0  0  0  0  0  0  0  0  0  0
    7.5880   27.8470   -6.5650 H   0  0  0  0  0  0  0  0  0  0  0  0
    8.2710   26.4920   -7.5100 H   0  0  0  0  0  0  0  0  0  0  0  0
    3.3690   28.5790   -8.4710 C   0  0  1  0  0  0  0  0  0  0  0  0
    4.2420   28.8460   -7.8930 H   0  0  0  0  0  0  0  0  0  0  0  0
    2.1400   29.2840   -7.8390 C   0  0  1  0  0  0  0  0  0  0  0  0
    1.2140   29.0360   -8.3510 H   0  0  0  0  0  0  0  0  0  0  0  0
    2.0250   28.7970   -6.3780 C   0  0  2  0  0  0  0  0  0  0  0  0
    2.8960   29.1430   -5.8190 H   0  0  0  0  0  0  0  0  0  0  0  0
    1.9540   27.2580   -6.2920 C   0  0  1  0  0  0  0  0  0  0  0  0
    1.0210   26.9190   -6.7470 H   0  0  0  0  0  0  0  0  0  0  0  0
    3.1390   26.6190   -7.0380 C   0  0  2  0  0  0  0  0  0  0  0  0
    4.0650   26.8560   -6.5120 H   0  0  0  0  0  0  0  0  0  0  0  0
    3.1400   27.1580   -8.3820 O   0  0  0  0  0  0  0  0  0  0  0  0
    3.0110   25.0950   -7.1510 C   0  0  0  0  0  0  0  0  0  0  0  0
    2.0650   24.8400   -7.6300 H   0  0  0  0  0  0  0  0  0  0  0  0
    3.0370   24.6530   -6.1540 H   0  0  0  0  0  0  0  0  0  0  0  0
    4.0790   24.5730   -7.9180 O   0  0  0  0  0  0  0  0  0  0  0  0
    3.9650   24.8740   -8.8240 H   0  0  0  0  0  0  0  0  0  0  0  0
    1.9880   26.8570   -4.9350 O   0  0  0  0  0  0  0  0  0  0  0  0
    1.2520   27.2770   -4.4800 H   0  0  0  0  0  0  0  0  0  0  0  0
    0.8530   29.3360   -5.7920 O   0  0  0  0  0  0  0  0  0  0  0  0
    0.8630   30.2910   -5.8940 H   0  0  0  0  0  0  0  0  0  0  0  0
    2.3990   30.7270   -7.8010 O   0  0  0  0  0  0  0  0  0  0  0  0
    1.4250   31.6630   -7.9790 C   0  0  0  0  0  0  0  0  0  0  0  0
    0.2950   31.2850   -8.2470 O   0  0  0  0  0  0  0  0  0  0  0  0
    1.7740   33.0610   -7.8590 C   0  0  0  0  0  0  0  0  0  0  0  0
    1.0320   33.7440   -8.1820 H   0  0  0  0  0  0  0  0  0  0  0  0
    2.9680   33.5110   -7.3910 C   0  0  0  0  0  0  0  0  0  0  0  0
    3.6800   32.8160   -7.0240 H   0  0  0  0  0  0  0  0  0  0  0  0
    3.3750   34.9070   -7.3640 C   0  0  0  0  0  0  0  0  0  0  0  0
    4.3630   35.3130   -6.4550 C   0  0  0  0  0  0  0  0  0  0  0  0
    4.7540   34.6140   -5.7630 H   0  0  0  0  0  0  0  0  0  0  0  0
    4.8440   36.6160   -6.4570 C   0  0  0  0  0  0  0  0  0  0  0  0
    5.5990   36.9100   -5.7760 H   0  0  0  0  0  0  0  0  0  0  0  0
    4.3340   37.5290   -7.3750 C   0  0  0  0  0  0  0  0  0  0  0  0
    3.3230   37.1660   -8.2620 C   0  0  0  0  0  0  0  0  0  0  0  0
    2.9300   37.8770   -8.9420 H   0  0  0  0  0  0  0  0  0  0  0  0
    2.8450   35.8610   -8.2530 C   0  0  0  0  0  0  0  0  0  0  0  0
    2.0870   35.5860   -8.9390 H   0  0  0  0  0  0  0  0  0  0  0  0
    4.8480   38.7890   -7.4080 O   0  0  0  0  0  0  0  0  0  0  0  0
    4.5650   39.2680   -8.2170 H   0  0  0  0  0  0  0  0  0  0  0  0
    1.3480   28.2470  -10.6230 O   0  0  0  0  0  0  0  0  0  0  0  0
    1.3180   27.9390   -9.6970 H   0  0  0  0  0  0  0  0  0  0  0  0
  1  2  1  0  0  0  0
  1  3  1  0  0  0  0
  1  4  1  0  0  0  0
  1  5  1  0  0  0  0
  5  6  1  0  0  0  0
  5 11  2  0  0  0  0
  6  7  1  0  0  0  0
  6  8  2  0  0  0  0
  8  9  1  0  0  0  0
  8 66  1  0  0  0  0
  9 10  2  0  0  0  0
  9 27  1  0  0  0  0
 10 11  1  0  0  0  0
 10 17  1  0  0  0  0
 11 12  1  0  0  0  0
 12 13  2  0  0  0  0
 12 14  1  0  0  0  0
 14 15  1  0  0  0  0
 14 16  2  0  0  0  0
 16 17  1  0  0  0  0
 16 18  1  0  0  0  0
 18 19  1  0  0  0  0
 18 20  1  0  0  0  0
 18 21  1  0  0  0  0
 21 22  2  0  0  0  0
 21 23  1  0  0  0  0
 23 24  1  0  0  0  0
 23 25  1  0  0  0  0
 23 26  1  0  0  0  0
 27 28  1  0  0  0  0
 27 29  1  0  0  0  0
 27 37  1  0  0  0  0
 29 30  1  0  0  0  0
 29 31  1  0  0  0  0
 29 47  1  0  0  0  0
 31 32  1  0  0  0  0
 31 33  1  0  0  0  0
 31 45  1  0  0  0  0
 33 34  1  0  0  0  0
 33 35  1  0  0  0  0
 33 43  1  0  0  0  0
 35 36  1  0  0  0  0
 35 37  1  0  0  0  0
 35 38  1  0  0  0  0
 38 39  1  0  0  0  0
 38 40  1  0  0  0  0
 38 41  1  0  0  0  0
 41 42  1  0  0  0  0
 43 44  1  0  0  0  0
 45 46  1  0  0  0  0
 47 48  1  0  0  0  0
 48 49  2  0  0  0  0
 48 50  1  0  0  0  0
 50 51  1  0  0  0  0
 50 52  2  0  0  0  0
 52 53  1  0  0  0  0
 52 54  1  0  0  0  0
 54 55  1  0  0  0  0
 54 62  2  0  0  0  0
 55 56  1  0  0  0  0
 55 57  2  0  0  0  0
 57 58  1  0  0  0  0
 57 59  1  0  0  0  0
 59 60  2  0  0  0  0
 59 64  1  0  0  0  0
 60 61  1  0  0  0  0
 60 62  1  0  0  0  0
 62 63  1  0  0  0  0
 64 65  1  0  0  0  0
 66 67  1  0  0  0  0
M  END
>  <rseq>
1

>  <mseq>
1

>  <S>
-5.3896422

>  <rmsd_refine>
2.6243727

>  <E_conf>
13.904535

>  <E_place>
-30.6698

>  <E_score1>
20.412449

>  <E_refine>
-30.489149

>  <E_score2>
-5.3896422

$$$$
Aloesin
  MOE2015           3D

 50 52  0  0  1  0  0  0  0  0999 V2000
   10.9390   22.6070   -5.2940 C   0  0  0  0  0  0  0  0  0  0  0  0
   10.0040   22.0840   -5.0930 H   0  0  0  0  0  0  0  0  0  0  0  0
   11.4880   22.7330   -4.3600 H   0  0  0  0  0  0  0  0  0  0  0  0
   11.5230   22.0400   -6.0190 H   0  0  0  0  0  0  0  0  0  0  0  0
   10.6500   23.9820   -5.8760 C   0  0  0  0  0  0  0  0  0  0  0  0
    9.3200   24.3070   -6.1110 C   0  0  0  0  0  0  0  0  0  0  0  0
    8.5510   23.6160   -5.8770 H   0  0  0  0  0  0  0  0  0  0  0  0
    8.9740   25.5390   -6.6680 C   0  0  0  0  0  0  0  0  0  0  0  0
    9.9400   26.4900   -7.0090 C   0  0  0  0  0  0  0  0  0  0  0  0
   11.2710   26.1790   -6.7010 C   0  0  0  0  0  0  0  0  0  0  0  0
   11.6650   24.9260   -6.1810 C   0  0  0  0  0  0  0  0  0  0  0  0
   13.0940   24.6900   -6.0010 C   0  0  0  0  0  0  0  0  0  0  0  0
   13.5560   23.6110   -5.6490 O   0  0  0  0  0  0  0  0  0  0  0  0
   14.0010   25.7760   -6.2440 C   0  0  0  0  0  0  0  0  0  0  0  0
   15.0310   25.6120   -6.0600 H   0  0  0  0  0  0  0  0  0  0  0  0
   13.5530   26.9770   -6.6770 C   0  0  0  0  0  0  0  0  0  0  0  0
   12.2290   27.1540   -6.9190 O   0  0  0  0  0  0  0  0  0  0  0  0
   14.4220   28.1990   -6.8920 C   0  0  0  0  0  0  0  0  0  0  0  0
   13.9160   28.9020   -7.5370 H   0  0  0  0  0  0  0  0  0  0  0  0
   15.3890   27.8900   -7.2640 H   0  0  0  0  0  0  0  0  0  0  0  0
   14.6070   28.7970   -5.5120 C   0  0  0  0  0  0  0  0  0  0  0  0
   15.5410   28.4620   -4.8390 O   0  0  0  0  0  0  0  0  0  0  0  0
   13.5900   29.7680   -4.9560 C   0  0  0  0  0  0  0  0  0  0  0  0
   13.6820   30.6840   -5.5210 H   0  0  0  0  0  0  0  0  0  0  0  0
   13.8130   29.9300   -3.9100 H   0  0  0  0  0  0  0  0  0  0  0  0
   12.6160   29.3230   -5.0890 H   0  0  0  0  0  0  0  0  0  0  0  0
    9.6210   27.7650   -7.8020 C   0  0  1  0  0  0  0  0  0  0  0  0
   10.3920   28.5110   -7.6800 H   0  0  0  0  0  0  0  0  0  0  0  0
    9.4940   27.3330   -9.2800 C   0  0  1  0  0  0  0  0  0  0  0  0
    8.7770   26.5280   -9.3820 H   0  0  0  0  0  0  0  0  0  0  0  0
    9.0220   28.5220  -10.1220 C   0  0  2  0  0  0  0  0  0  0  0  0
    9.8110   29.2600  -10.1170 H   0  0  0  0  0  0  0  0  0  0  0  0
    7.7220   29.1380   -9.5880 C   0  0  1  0  0  0  0  0  0  0  0  0
    6.9090   28.4200   -9.7130 H   0  0  0  0  0  0  0  0  0  0  0  0
    7.8620   29.4940   -8.1020 C   0  0  2  0  0  0  0  0  0  0  0  0
    8.5560   30.3300   -8.0130 H   0  0  0  0  0  0  0  0  0  0  0  0
    8.3340   28.3080   -7.3850 O   0  0  0  0  0  0  0  0  0  0  0  0
    6.5040   29.8930   -7.5050 C   0  0  0  0  0  0  0  0  0  0  0  0
    5.7830   29.0930   -7.6720 H   0  0  0  0  0  0  0  0  0  0  0  0
    6.1470   30.7990   -7.9970 H   0  0  0  0  0  0  0  0  0  0  0  0
    6.6080   30.1380   -6.1170 O   0  0  0  0  0  0  0  0  0  0  0  0
    6.8550   29.3200   -5.6770 H   0  0  0  0  0  0  0  0  0  0  0  0
    7.4340   30.3160  -10.3180 O   0  0  0  0  0  0  0  0  0  0  0  0
    7.4030   30.0900  -11.2530 H   0  0  0  0  0  0  0  0  0  0  0  0
    8.7910   28.1010  -11.4460 O   0  0  0  0  0  0  0  0  0  0  0  0
    9.4910   27.4940  -11.7030 H   0  0  0  0  0  0  0  0  0  0  0  0
   10.7660   26.9040   -9.7430 O   0  0  0  0  0  0  0  0  0  0  0  0
   11.4190   27.5830   -9.5610 H   0  0  0  0  0  0  0  0  0  0  0  0
    7.6470   25.7650   -6.8680 O   0  0  0  0  0  0  0  0  0  0  0  0
    7.5170   26.6940   -7.1520 H   0  0  0  0  0  0  0  0  0  0  0  0
  1  2  1  0  0  0  0
  1  3  1  0  0  0  0
  1  4  1  0  0  0  0
  1  5  1  0  0  0  0
  5  6  1  0  0  0  0
  5 11  2  0  0  0  0
  6  7  1  0  0  0  0
  6  8  2  0  0  0  0
  8  9  1  0  0  0  0
  8 49  1  0  0  0  0
  9 10  2  0  0  0  0
  9 27  1  0  0  0  0
 10 11  1  0  0  0  0
 10 17  1  0  0  0  0
 11 12  1  0  0  0  0
 12 13  2  0  0  0  0
 12 14  1  0  0  0  0
 14 15  1  0  0  0  0
 14 16  2  0  0  0  0
 16 17  1  0  0  0  0
 16 18  1  0  0  0  0
 18 19  1  0  0  0  0
 18 20  1  0  0  0  0
 18 21  1  0  0  0  0
 21 22  2  0  0  0  0
 21 23  1  0  0  0  0
 23 24  1  0  0  0  0
 23 25  1  0  0  0  0
 23 26  1  0  0  0  0
 27 28  1  0  0  0  0
 27 29  1  0  0  0  0
 27 37  1  0  0  0  0
 29 30  1  0  0  0  0
 29 31  1  0  0  0  0
 29 47  1  0  0  0  0
 31 32  1  0  0  0  0
 31 33  1  0  0  0  0
 31 45  1  0  0  0  0
 33 34  1  0  0  0  0
 33 35  1  0  0  0  0
 33 43  1  0  0  0  0
 35 36  1  0  0  0  0
 35 37  1  0  0  0  0
 35 38  1  0  0  0  0
 38 39  1  0  0  0  0
 38 40  1  0  0  0  0
 38 41  1  0  0  0  0
 41 42  1  0  0  0  0
 43 44  1  0  0  0  0
 45 46  1  0  0  0  0
 47 48  1  0  0  0  0
 49 50  1  0  0  0  0
M  END
>  <rseq>
1

>  <mseq>
2

>  <S>
-6.1624279

>  <rmsd_refine>
2.1007378

>  <E_conf>
48.678196

>  <E_place>
-68.868011

>  <E_score1>
3.4709451

>  <E_refine>
-30.844988

>  <E_score2>
-6.1624279

$$$$
Aloesin
  MOE2015           3D

 50 52  0  0  1  0  0  0  0  0999 V2000
   10.9960   22.6340   -5.2980 C   0  0  0  0  0  0  0  0  0  0  0  0
   10.0640   22.0970   -5.1160 H   0  0  0  0  0  0  0  0  0  0  0  0
   11.5200   22.7770   -4.3530 H   0  0  0  0  0  0  0  0  0  0  0  0
   11.6060   22.0710   -6.0050 H   0  0  0  0  0  0  0  0  0  0  0  0
   10.6980   23.9990   -5.8990 C   0  0  0  0  0  0  0  0  0  0  0  0
    9.3650   24.3180   -6.1310 C   0  0  0  0  0  0  0  0  0  0  0  0
    8.5990   23.6290   -5.8800 H   0  0  0  0  0  0  0  0  0  0  0  0
    9.0120   25.5420   -6.7000 C   0  0  0  0  0  0  0  0  0  0  0  0
    9.9740   26.4850   -7.0710 C   0  0  0  0  0  0  0  0  0  0  0  0
   11.3070   26.1740   -6.7800 C   0  0  0  0  0  0  0  0  0  0  0  0
   11.7080   24.9420   -6.2200 C   0  0  0  0  0  0  0  0  0  0  0  0
   13.1380   24.7330   -6.0110 C   0  0  0  0  0  0  0  0  0  0  0  0
   13.6080   23.6760   -5.6070 O   0  0  0  0  0  0  0  0  0  0  0  0
   14.0360   25.8210   -6.2820 C   0  0  0  0  0  0  0  0  0  0  0  0
   15.0650   25.6800   -6.0740 H   0  0  0  0  0  0  0  0  0  0  0  0
   13.5770   26.9920   -6.7810 C   0  0  0  0  0  0  0  0  0  0  0  0
   12.2590   27.1310   -7.0560 O   0  0  0  0  0  0  0  0  0  0  0  0
   14.4140   28.2250   -7.0600 C   0  0  0  0  0  0  0  0  0  0  0  0
   14.1070   28.6580   -8.0030 H   0  0  0  0  0  0  0  0  0  0  0  0
   15.4630   27.9630   -7.0380 H   0  0  0  0  0  0  0  0  0  0  0  0
   14.1100   29.2030   -5.9390 C   0  0  0  0  0  0  0  0  0  0  0  0
   13.0050   29.6480   -5.8040 O   0  0  0  0  0  0  0  0  0  0  0  0
   15.2170   29.6500   -5.0120 C   0  0  0  0  0  0  0  0  0  0  0  0
   15.6170   28.7630   -4.5410 H   0  0  0  0  0  0  0  0  0  0  0  0
   14.7940   30.3300   -4.2840 H   0  0  0  0  0  0  0  0  0  0  0  0
   15.9640   30.1400   -5.6210 H   0  0  0  0  0  0  0  0  0  0  0  0
    9.6530   27.7590   -7.8610 C   0  0  1  0  0  0  0  0  0  0  0  0
   10.4330   28.4980   -7.7590 H   0  0  0  0  0  0  0  0  0  0  0  0
    9.4880   27.3280   -9.3360 C   0  0  1  0  0  0  0  0  0  0  0  0
    8.7740   26.5180   -9.4090 H   0  0  0  0  0  0  0  0  0  0  0  0
    8.9780   28.5090  -10.1710 C   0  0  2  0  0  0  0  0  0  0  0  0
    9.7550   29.2600  -10.1910 H   0  0  0  0  0  0  0  0  0  0  0  0
    7.6920   29.1160   -9.5930 C   0  0  1  0  0  0  0  0  0  0  0  0
    6.8870   28.3850   -9.6740 H   0  0  0  0  0  0  0  0  0  0  0  0
    7.9070   29.4930   -8.1200 C   0  0  2  0  0  0  0  0  0  0  0  0
    8.6320   30.3060   -8.0800 H   0  0  0  0  0  0  0  0  0  0  0  0
    8.3890   28.3160   -7.4100 O   0  0  0  0  0  0  0  0  0  0  0  0
    6.6160   29.9550   -7.4230 C   0  0  0  0  0  0  0  0  0  0  0  0
    6.2510   30.8660   -7.8990 H   0  0  0  0  0  0  0  0  0  0  0  0
    6.8400   30.1780   -6.3800 H   0  0  0  0  0  0  0  0  0  0  0  0
    5.6050   28.9650   -7.4710 O   0  0  0  0  0  0  0  0  0  0  0  0
    5.2060   28.9760   -8.3450 H   0  0  0  0  0  0  0  0  0  0  0  0
    7.3560   30.2820  -10.3220 O   0  0  0  0  0  0  0  0  0  0  0  0
    7.3450   30.0600  -11.2580 H   0  0  0  0  0  0  0  0  0  0  0  0
    8.7150   28.0930  -11.4940 O   0  0  0  0  0  0  0  0  0  0  0  0
    8.3390   27.2050  -11.4800 H   0  0  0  0  0  0  0  0  0  0  0  0
   10.7470   26.8990   -9.8270 O   0  0  0  0  0  0  0  0  0  0  0  0
   11.3760   27.6220   -9.7660 H   0  0  0  0  0  0  0  0  0  0  0  0
    7.6810   25.7730   -6.8770 O   0  0  0  0  0  0  0  0  0  0  0  0
    7.5400   26.7110   -7.1260 H   0  0  0  0  0  0  0  0  0  0  0  0
  1  2  1  0  0  0  0
  1  3  1  0  0  0  0
  1  4  1  0  0  0  0
  1  5  1  0  0  0  0
  5  6  1  0  0  0  0
  5 11  2  0  0  0  0
  6  7  1  0  0  0  0
  6  8  2  0  0  0  0
  8  9  1  0  0  0  0
  8 49  1  0  0  0  0
  9 10  2  0  0  0  0
  9 27  1  0  0  0  0
 10 11  1  0  0  0  0
 10 17  1  0  0  0  0
 11 12  1  0  0  0  0
 12 13  2  0  0  0  0
 12 14  1  0  0  0  0
 14 15  1  0  0  0  0
 14 16  2  0  0  0  0
 16 17  1  0  0  0  0
 16 18  1  0  0  0  0
 18 19  1  0  0  0  0
 18 20  1  0  0  0  0
 18 21  1  0  0  0  0
 21 22  2  0  0  0  0
 21 23  1  0  0  0  0
 23 24  1  0  0  0  0
 23 25  1  0  0  0  0
 23 26  1  0  0  0  0
 27 28  1  0  0  0  0
 27 29  1  0  0  0  0
 27 37  1  0  0  0  0
 29 30  1  0  0  0  0
 29 31  1  0  0  0  0
 29 47  1  0  0  0  0
 31 32  1  0  0  0  0
 31 33  1  0  0  0  0
 31 45  1  0  0  0  0
 33 34  1  0  0  0  0
 33 35  1  0  0  0  0
 33 43  1  0  0  0  0
 35 36  1  0  0  0  0
 35 37  1  0  0  0  0
 35 38  1  0  0  0  0
 38 39  1  0  0  0  0
 38 40  1  0  0  0  0
 38 41  1  0  0  0  0
 41 42  1  0  0  0  0
 43 44  1  0  0  0  0
 45 46  1  0  0  0  0
 47 48  1  0  0  0  0
 49 50  1  0  0  0  0
M  END
>  <rseq>
1

>  <mseq>
2

>  <S>
-6.1608877

>  <rmsd_refine>
3.7267325

>  <E_conf>
52.443508

>  <E_place>
-41.559418

>  <E_score1>
-2.3870342

>  <E_refine>
-34.605

>  <E_score2>
-6.1608877

$$$$
Aloesin
  MOE2015           3D

 50 52  0  0  1  0  0  0  0  0999 V2000
   10.7560   22.7980   -4.4520 C   0  0  0  0  0  0  0  0  0  0  0  0
    9.8390   22.2100   -4.4210 H   0  0  0  0  0  0  0  0  0  0  0  0
   11.0790   23.0190   -3.4340 H   0  0  0  0  0  0  0  0  0  0  0  0
   11.5240   22.2460   -4.9960 H   0  0  0  0  0  0  0  0  0  0  0  0
   10.5040   24.1120   -5.1760 C   0  0  0  0  0  0  0  0  0  0  0  0
    9.2370   24.3170   -5.7080 C   0  0  0  0  0  0  0  0  0  0  0  0
    8.4830   23.5800   -5.5940 H   0  0  0  0  0  0  0  0  0  0  0  0
    8.9340   25.4900   -6.4010 C   0  0  0  0  0  0  0  0  0  0  0  0
    9.8850   26.4930   -6.6010 C   0  0  0  0  0  0  0  0  0  0  0  0
   11.1340   26.3050   -5.9980 C   0  0  0  0  0  0  0  0  0  0  0  0
   11.4930   25.1190   -5.3190 C   0  0  0  0  0  0  0  0  0  0  0  0
   12.8600   25.0210   -4.8110 C   0  0  0  0  0  0  0  0  0  0  0  0
   13.3260   23.9980   -4.3210 O   0  0  0  0  0  0  0  0  0  0  0  0
   13.7000   26.1830   -4.8980 C   0  0  0  0  0  0  0  0  0  0  0  0
   14.6690   26.1270   -4.4720 H   0  0  0  0  0  0  0  0  0  0  0  0
   13.2650   27.3140   -5.5000 C   0  0  0  0  0  0  0  0  0  0  0  0
   12.0330   27.3440   -6.0590 O   0  0  0  0  0  0  0  0  0  0  0  0
   14.0490   28.6040   -5.6290 C   0  0  0  0  0  0  0  0  0  0  0  0
   14.8770   28.5900   -4.9330 H   0  0  0  0  0  0  0  0  0  0  0  0
   13.3860   29.4450   -5.4740 H   0  0  0  0  0  0  0  0  0  0  0  0
   14.5820   28.6590   -7.0470 C   0  0  0  0  0  0  0  0  0  0  0  0
   13.8520   28.5060   -7.9820 O   0  0  0  0  0  0  0  0  0  0  0  0
   16.0390   28.9680   -7.2820 C   0  0  0  0  0  0  0  0  0  0  0  0
   16.3190   29.7400   -6.5810 H   0  0  0  0  0  0  0  0  0  0  0  0
   16.1450   29.3070   -8.3040 H   0  0  0  0  0  0  0  0  0  0  0  0
   16.5820   28.0520   -7.1010 H   0  0  0  0  0  0  0  0  0  0  0  0
    9.6500   27.7090   -7.5120 C   0  0  1  0  0  0  0  0  0  0  0  0
   10.3670   28.4970   -7.3280 H   0  0  0  0  0  0  0  0  0  0  0  0
    9.7710   27.2030   -8.9690 C   0  0  1  0  0  0  0  0  0  0  0  0
    9.1690   26.3130   -9.1300 H   0  0  0  0  0  0  0  0  0  0  0  0
    9.3210   28.2990   -9.9460 C   0  0  2  0  0  0  0  0  0  0  0  0
   10.0440   29.1060   -9.9070 H   0  0  0  0  0  0  0  0  0  0  0  0
    7.9300   28.8630   -9.6130 C   0  0  1  0  0  0  0  0  0  0  0  0
    7.1800   28.0850   -9.7510 H   0  0  0  0  0  0  0  0  0  0  0  0
    7.9070   29.3400   -8.1540 C   0  0  2  0  0  0  0  0  0  0  0  0
    8.5920   30.1840   -8.0540 H   0  0  0  0  0  0  0  0  0  0  0  0
    8.2990   28.2140   -7.3150 O   0  0  0  0  0  0  0  0  0  0  0  0
    6.5040   29.7810   -7.7160 C   0  0  0  0  0  0  0  0  0  0  0  0
    5.8020   28.9590   -7.8540 H   0  0  0  0  0  0  0  0  0  0  0  0
    6.1840   30.6290   -8.3230 H   0  0  0  0  0  0  0  0  0  0  0  0
    6.5080   30.1670   -6.3560 O   0  0  0  0  0  0  0  0  0  0  0  0
    6.7570   29.4090   -5.8210 H   0  0  0  0  0  0  0  0  0  0  0  0
    7.6460   29.9570  -10.4670 O   0  0  0  0  0  0  0  0  0  0  0  0
    7.7830   29.6780  -11.3770 H   0  0  0  0  0  0  0  0  0  0  0  0
    9.3110   27.7670  -11.2550 O   0  0  0  0  0  0  0  0  0  0  0  0
    8.7120   27.0140  -11.2910 H   0  0  0  0  0  0  0  0  0  0  0  0
   11.1330   26.9090   -9.2060 O   0  0  0  0  0  0  0  0  0  0  0  0
   11.2500   26.7270  -10.1430 H   0  0  0  0  0  0  0  0  0  0  0  0
    7.6650   25.6190   -6.8690 O   0  0  0  0  0  0  0  0  0  0  0  0
    7.5410   26.5310   -7.2050 H   0  0  0  0  0  0  0  0  0  0  0  0
  1  2  1  0  0  0  0
  1  3  1  0  0  0  0
  1  4  1  0  0  0  0
  1  5  1  0  0  0  0
  5  6  1  0  0  0  0
  5 11  2  0  0  0  0
  6  7  1  0  0  0  0
  6  8  2  0  0  0  0
  8  9  1  0  0  0  0
  8 49  1  0  0  0  0
  9 10  2  0  0  0  0
  9 27  1  0  0  0  0
 10 11  1  0  0  0  0
 10 17  1  0  0  0  0
 11 12  1  0  0  0  0
 12 13  2  0  0  0  0
 12 14  1  0  0  0  0
 14 15  1  0  0  0  0
 14 16  2  0  0  0  0
 16 17  1  0  0  0  0
 16 18  1  0  0  0  0
 18 19  1  0  0  0  0
 18 20  1  0  0  0  0
 18 21  1  0  0  0  0
 21 22  2  0  0  0  0
 21 23  1  0  0  0  0
 23 24  1  0  0  0  0
 23 25  1  0  0  0  0
 23 26  1  0  0  0  0
 27 28  1  0  0  0  0
 27 29  1  0  0  0  0
 27 37  1  0  0  0  0
 29 30  1  0  0  0  0
 29 31  1  0  0  0  0
 29 47  1  0  0  0  0
 31 32  1  0  0  0  0
 31 33  1  0  0  0  0
 31 45  1  0  0  0  0
 33 34  1  0  0  0  0
 33 35  1  0  0  0  0
 33 43  1  0  0  0  0
 35 36  1  0  0  0  0
 35 37  1  0  0  0  0
 35 38  1  0  0  0  0
 38 39  1  0  0  0  0
 38 40  1  0  0  0  0
 38 41  1  0  0  0  0
 41 42  1  0  0  0  0
 43 44  1  0  0  0  0
 45 46  1  0  0  0  0
 47 48  1  0  0  0  0
 49 50  1  0  0  0  0
M  END
>  <rseq>
1

>  <mseq>
2

>  <S>
-5.9548678

>  <rmsd_refine>
4.9753022

>  <E_conf>
50.365166

>  <E_place>
-40.727852

>  <E_score1>
-2.6259394

>  <E_refine>
-29.702913

>  <E_score2>
-5.9548678

$$$$
Aloesin
  MOE2015           3D

 50 52  0  0  1  0  0  0  0  0999 V2000
    7.2370   29.5660  -11.0750 C   0  0  0  0  0  0  0  0  0  0  0  0
    7.7920   29.5490  -12.0140 H   0  0  0  0  0  0  0  0  0  0  0  0
    7.0850   30.6000  -10.7660 H   0  0  0  0  0  0  0  0  0  0  0  0
    6.2870   29.0480  -11.2090 H   0  0  0  0  0  0  0  0  0  0  0  0
    8.0320   28.8590   -9.9890 C   0  0  0  0  0  0  0  0  0  0  0  0
    9.2780   28.3580  -10.3400 C   0  0  0  0  0  0  0  0  0  0  0  0
    9.6380   28.4640  -11.3300 H   0  0  0  0  0  0  0  0  0  0  0  0
   10.0810   27.7160   -9.3980 C   0  0  0  0  0  0  0  0  0  0  0  0
    9.6760   27.5480   -8.0750 C   0  0  0  0  0  0  0  0  0  0  0  0
    8.4130   28.0430   -7.7380 C   0  0  0  0  0  0  0  0  0  0  0  0
    7.5660   28.6980   -8.6590 C   0  0  0  0  0  0  0  0  0  0  0  0
    6.2650   29.1500   -8.1690 C   0  0  0  0  0  0  0  0  0  0  0  0
    5.4590   29.7540   -8.8670 O   0  0  0  0  0  0  0  0  0  0  0  0
    5.9130   28.8610   -6.8040 C   0  0  0  0  0  0  0  0  0  0  0  0
    4.9560   29.1630   -6.4650 H   0  0  0  0  0  0  0  0  0  0  0  0
    6.7780   28.2230   -5.9810 C   0  0  0  0  0  0  0  0  0  0  0  0
    7.9940   27.8640   -6.4460 O   0  0  0  0  0  0  0  0  0  0  0  0
    6.5230   27.8490   -4.5330 C   0  0  0  0  0  0  0  0  0  0  0  0
    5.4760   27.9900   -4.3020 H   0  0  0  0  0  0  0  0  0  0  0  0
    7.1780   28.4320   -3.8990 H   0  0  0  0  0  0  0  0  0  0  0  0
    6.8780   26.3780   -4.4100 C   0  0  0  0  0  0  0  0  0  0  0  0
    7.9820   26.0490   -4.0690 O   0  0  0  0  0  0  0  0  0  0  0  0
    5.8720   25.3280   -4.8280 C   0  0  0  0  0  0  0  0  0  0  0  0
    5.6670   25.4820   -5.8790 H   0  0  0  0  0  0  0  0  0  0  0  0
    4.9830   25.4800   -4.2330 H   0  0  0  0  0  0  0  0  0  0  0  0
    6.3070   24.3530   -4.6500 H   0  0  0  0  0  0  0  0  0  0  0  0
   10.5400   26.8470   -7.0200 C   0  0  1  0  0  0  0  0  0  0  0  0
   10.1650   27.0160   -6.0220 H   0  0  0  0  0  0  0  0  0  0  0  0
   10.5650   25.3240   -7.2930 C   0  0  1  0  0  0  0  0  0  0  0  0
   10.8120   25.0960   -8.3300 H   0  0  0  0  0  0  0  0  0  0  0  0
   11.6060   24.6690   -6.3590 C   0  0  2  0  0  0  0  0  0  0  0  0
   11.2690   24.7870   -5.3280 H   0  0  0  0  0  0  0  0  0  0  0  0
   12.9940   25.3300   -6.5000 C   0  0  1  0  0  0  0  0  0  0  0  0
   13.3540   25.2060   -7.5230 H   0  0  0  0  0  0  0  0  0  0  0  0
   12.8580   26.8330   -6.1930 C   0  0  2  0  0  0  0  0  0  0  0  0
   12.5350   26.9600   -5.1580 H   0  0  0  0  0  0  0  0  0  0  0  0
   11.8880   27.3710   -7.1250 O   0  0  0  0  0  0  0  0  0  0  0  0
   14.1640   27.6110   -6.4010 C   0  0  0  0  0  0  0  0  0  0  0  0
   14.4680   27.5420   -7.4430 H   0  0  0  0  0  0  0  0  0  0  0  0
   14.9480   27.1930   -5.7700 H   0  0  0  0  0  0  0  0  0  0  0  0
   13.9780   28.9710   -6.0660 O   0  0  0  0  0  0  0  0  0  0  0  0
   13.2870   29.3290   -6.6300 H   0  0  0  0  0  0  0  0  0  0  0  0
   13.9180   24.7350   -5.6040 O   0  0  0  0  0  0  0  0  0  0  0  0
   13.5030   24.6500   -4.7420 H   0  0  0  0  0  0  0  0  0  0  0  0
   11.6950   23.2840   -6.6430 O   0  0  0  0  0  0  0  0  0  0  0  0
   12.1610   23.1580   -7.4760 H   0  0  0  0  0  0  0  0  0  0  0  0
    9.2720   24.8250   -6.9890 O   0  0  0  0  0  0  0  0  0  0  0  0
    9.1050   24.9380   -6.0490 H   0  0  0  0  0  0  0  0  0  0  0  0
   11.2880   27.2720   -9.8230 O   0  0  0  0  0  0  0  0  0  0  0  0
   11.8250   26.9730   -9.0630 H   0  0  0  0  0  0  0  0  0  0  0  0
  1  2  1  0  0  0  0
  1  3  1  0  0  0  0
  1  4  1  0  0  0  0
  1  5  1  0  0  0  0
  5  6  1  0  0  0  0
  5 11  2  0  0  0  0
  6  7  1  0  0  0  0
  6  8  2  0  0  0  0
  8  9  1  0  0  0  0
  8 49  1  0  0  0  0
  9 10  2  0  0  0  0
  9 27  1  0  0  0  0
 10 11  1  0  0  0  0
 10 17  1  0  0  0  0
 11 12  1  0  0  0  0
 12 13  2  0  0  0  0
 12 14  1  0  0  0  0
 14 15  1  0  0  0  0
 14 16  2  0  0  0  0
 16 17  1  0  0  0  0
 16 18  1  0  0  0  0
 18 19  1  0  0  0  0
 18 20  1  0  0  0  0
 18 21  1  0  0  0  0
 21 22  2  0  0  0  0
 21 23  1  0  0  0  0
 23 24  1  0  0  0  0
 23 25  1  0  0  0  0
 23 26  1  0  0  0  0
 27 28  1  0  0  0  0
 27 29  1  0  0  0  0
 27 37  1  0  0  0  0
 29 30  1  0  0  0  0
 29 31  1  0  0  0  0
 29 47  1  0  0  0  0
 31 32  1  0  0  0  0
 31 33  1  0  0  0  0
 31 45  1  0  0  0  0
 33 34  1  0  0  0  0
 33 35  1  0  0  0  0
 33 43  1  0  0  0  0
 35 36  1  0  0  0  0
 35 37  1  0  0  0  0
 35 38  1  0  0  0  0
 38 39  1  0  0  0  0
 38 40  1  0  0  0  0
 38 41  1  0  0  0  0
 41 42  1  0  0  0  0
 43 44  1  0  0  0  0
 45 46  1  0  0  0  0
 47 48  1  0  0  0  0
 49 50  1  0  0  0  0
M  END
>  <rseq>
1

>  <mseq>
2

>  <S>
-5.6498184

>  <rmsd_refine>
1.3043036

>  <E_conf>
51.276924

>  <E_place>
-89.875412

>  <E_score1>
3.7745233

>  <E_refine>
-29.63373

>  <E_score2>
-5.6498184

$$$$
Aloesin
  MOE2015           3D

 50 52  0  0  1  0  0  0  0  0999 V2000
    7.4330   29.2720  -10.9930 C   0  0  0  0  0  0  0  0  0  0  0  0
    8.0970   29.4500  -11.8400 H   0  0  0  0  0  0  0  0  0  0  0  0
    7.0980   30.2300  -10.5940 H   0  0  0  0  0  0  0  0  0  0  0  0
    6.5890   28.6640  -11.3180 H   0  0  0  0  0  0  0  0  0  0  0  0
    8.1780   28.5250   -9.8960 C   0  0  0  0  0  0  0  0  0  0  0  0
    9.5080   28.2080  -10.1370 C   0  0  0  0  0  0  0  0  0  0  0  0
    9.9620   28.4690  -11.0580 H   0  0  0  0  0  0  0  0  0  0  0  0
   10.2700   27.5520   -9.1710 C   0  0  0  0  0  0  0  0  0  0  0  0
    9.7410   27.1880   -7.9310 C   0  0  0  0  0  0  0  0  0  0  0  0
    8.3840   27.4590   -7.7240 C   0  0  0  0  0  0  0  0  0  0  0  0
    7.5820   28.1420   -8.6670 C   0  0  0  0  0  0  0  0  0  0  0  0
    6.1880   28.3890   -8.3110 C   0  0  0  0  0  0  0  0  0  0  0  0
    5.4150   29.0240   -9.0190 O   0  0  0  0  0  0  0  0  0  0  0  0
    5.6960   27.8490   -7.0730 C   0  0  0  0  0  0  0  0  0  0  0  0
    4.6720   27.9940   -6.8430 H   0  0  0  0  0  0  0  0  0  0  0  0
    6.5110   27.1690   -6.2330 C   0  0  0  0  0  0  0  0  0  0  0  0
    7.8180   27.0100   -6.5520 O   0  0  0  0  0  0  0  0  0  0  0  0
    6.0880   26.5260   -4.9270 C   0  0  0  0  0  0  0  0  0  0  0  0
    6.3260   25.4710   -4.9670 H   0  0  0  0  0  0  0  0  0  0  0  0
    5.0380   26.7170   -4.7530 H   0  0  0  0  0  0  0  0  0  0  0  0
    6.9050   27.1820   -3.8330 C   0  0  0  0  0  0  0  0  0  0  0  0
    7.8930   26.6400   -3.4180 O   0  0  0  0  0  0  0  0  0  0  0  0
    6.5050   28.5440   -3.3110 C   0  0  0  0  0  0  0  0  0  0  0  0
    5.4700   28.4810   -3.0040 H   0  0  0  0  0  0  0  0  0  0  0  0
    6.6270   29.2480   -4.1220 H   0  0  0  0  0  0  0  0  0  0  0  0
    7.1480   28.7870   -2.4760 H   0  0  0  0  0  0  0  0  0  0  0  0
   10.5760   26.5210   -6.8270 C   0  0  1  0  0  0  0  0  0  0  0  0
   10.1110   26.6370   -5.8580 H   0  0  0  0  0  0  0  0  0  0  0  0
   10.7500   25.0170   -7.1490 C   0  0  1  0  0  0  0  0  0  0  0  0
   11.1060   24.8570   -8.1670 H   0  0  0  0  0  0  0  0  0  0  0  0
   11.7580   24.4160   -6.1470 C   0  0  2  0  0  0  0  0  0  0  0  0
   11.3500   24.5100   -5.1400 H   0  0  0  0  0  0  0  0  0  0  0  0
   13.1040   25.1640   -6.2070 C   0  0  1  0  0  0  0  0  0  0  0  0
   13.5230   25.0730   -7.2110 H   0  0  0  0  0  0  0  0  0  0  0  0
   12.8730   26.6520   -5.8890 C   0  0  2  0  0  0  0  0  0  0  0  0
   12.5410   26.7590   -4.8550 H   0  0  0  0  0  0  0  0  0  0  0  0
   11.8850   27.1570   -6.8220 O   0  0  0  0  0  0  0  0  0  0  0  0
   14.1490   27.4800   -6.0980 C   0  0  0  0  0  0  0  0  0  0  0  0
   14.5020   27.3530   -7.1220 H   0  0  0  0  0  0  0  0  0  0  0  0
   14.9250   27.1400   -5.4120 H   0  0  0  0  0  0  0  0  0  0  0  0
   13.8940   28.8510   -5.8650 O   0  0  0  0  0  0  0  0  0  0  0  0
   13.1980   29.1340   -6.4640 H   0  0  0  0  0  0  0  0  0  0  0  0
   14.0150   24.6160   -5.2700 O   0  0  0  0  0  0  0  0  0  0  0  0
   13.5620   24.4920   -4.4320 H   0  0  0  0  0  0  0  0  0  0  0  0
   11.9520   23.0410   -6.4270 O   0  0  0  0  0  0  0  0  0  0  0  0
   12.3620   22.9470   -7.2930 H   0  0  0  0  0  0  0  0  0  0  0  0
    9.4870   24.3960   -6.9800 O   0  0  0  0  0  0  0  0  0  0  0  0
    9.2630   24.3930   -6.0460 H   0  0  0  0  0  0  0  0  0  0  0  0
   11.5610   27.2910   -9.4940 O   0  0  0  0  0  0  0  0  0  0  0  0
   12.0450   26.9600   -8.7100 H   0  0  0  0  0  0  0  0  0  0  0  0
  1  2  1  0  0  0  0
  1  3  1  0  0  0  0
  1  4  1  0  0  0  0
  1  5  1  0  0  0  0
  5  6  1  0  0  0  0
  5 11  2  0  0  0  0
  6  7  1  0  0  0  0
  6  8  2  0  0  0  0
  8  9  1  0  0  0  0
  8 49  1  0  0  0  0
  9 10  2  0  0  0  0
  9 27  1  0  0  0  0
 10 11  1  0  0  0  0
 10 17  1  0  0  0  0
 11 12  1  0  0  0  0
 12 13  2  0  0  0  0
 12 14  1  0  0  0  0
 14 15  1  0  0  0  0
 14 16  2  0  0  0  0
 16 17  1  0  0  0  0
 16 18  1  0  0  0  0
 18 19  1  0  0  0  0
 18 20  1  0  0  0  0
 18 21  1  0  0  0  0
 21 22  2  0  0  0  0
 21 23  1  0  0  0  0
 23 24  1  0  0  0  0
 23 25  1  0  0  0  0
 23 26  1  0  0  0  0
 27 28  1  0  0  0  0
 27 29  1  0  0  0  0
 27 37  1  0  0  0  0
 29 30  1  0  0  0  0
 29 31  1  0  0  0  0
 29 47  1  0  0  0  0
 31 32  1  0  0  0  0
 31 33  1  0  0  0  0
 31 45  1  0  0  0  0
 33 34  1  0  0  0  0
 33 35  1  0  0  0  0
 33 43  1  0  0  0  0
 35 36  1  0  0  0  0
 35 37  1  0  0  0  0
 35 38  1  0  0  0  0
 38 39  1  0  0  0  0
 38 40  1  0  0  0  0
 38 41  1  0  0  0  0
 41 42  1  0  0  0  0
 43 44  1  0  0  0  0
 45 46  1  0  0  0  0
 47 48  1  0  0  0  0
 49 50  1  0  0  0  0
M  END
>  <rseq>
1

>  <mseq>
2

>  <S>
-5.5758281

>  <rmsd_refine>
1.0343869

>  <E_conf>
51.913254

>  <E_place>
-75.578247

>  <E_score1>
1.3970674

>  <E_refine>
-30.323048

>  <E_score2>
-5.5758281

$$$$
Aloesin
  MOE2015           3D

 50 52  0  0  1  0  0  0  0  0999 V2000
   10.3120   25.8700   -6.7520 C   0  0  0  0  0  0  0  0  0  0  0  0
   10.1490   25.3880   -5.7880 H   0  0  0  0  0  0  0  0  0  0  0  0
   11.2600   26.4090   -6.7400 H   0  0  0  0  0  0  0  0  0  0  0  0
   10.3050   25.1160   -7.5400 H   0  0  0  0  0  0  0  0  0  0  0  0
    9.1960   26.8660   -7.0230 C   0  0  0  0  0  0  0  0  0  0  0  0
    8.3020   27.1480   -5.9960 C   0  0  0  0  0  0  0  0  0  0  0  0
    8.4020   26.6710   -5.0540 H   0  0  0  0  0  0  0  0  0  0  0  0
    7.2770   28.0820   -6.1760 C   0  0  0  0  0  0  0  0  0  0  0  0
    7.0610   28.7030   -7.4070 C   0  0  0  0  0  0  0  0  0  0  0  0
    7.8960   28.3130   -8.4560 C   0  0  0  0  0  0  0  0  0  0  0  0
    9.0270   27.4930   -8.2790 C   0  0  0  0  0  0  0  0  0  0  0  0
    9.9170   27.3370   -9.4210 C   0  0  0  0  0  0  0  0  0  0  0  0
   11.0700   26.9330   -9.3200 O   0  0  0  0  0  0  0  0  0  0  0  0
    9.3980   27.6790  -10.7150 C   0  0  0  0  0  0  0  0  0  0  0  0
    9.9530   27.3800  -11.5640 H   0  0  0  0  0  0  0  0  0  0  0  0
    8.2000   28.3000  -10.8330 C   0  0  0  0  0  0  0  0  0  0  0  0
    7.5400   28.6910   -9.7230 O   0  0  0  0  0  0  0  0  0  0  0  0
    7.4270   28.5350  -12.1190 C   0  0  0  0  0  0  0  0  0  0  0  0
    6.4240   28.1500  -11.9920 H   0  0  0  0  0  0  0  0  0  0  0  0
    7.9180   28.0440  -12.9450 H   0  0  0  0  0  0  0  0  0  0  0  0
    7.3020   30.0120  -12.4060 C   0  0  0  0  0  0  0  0  0  0  0  0
    7.5160   30.8380  -11.5640 O   0  0  0  0  0  0  0  0  0  0  0  0
    6.7880   30.4020  -13.7730 C   0  0  0  0  0  0  0  0  0  0  0  0
    5.8580   29.8750  -13.9310 H   0  0  0  0  0  0  0  0  0  0  0  0
    7.5380   30.0890  -14.4820 H   0  0  0  0  0  0  0  0  0  0  0  0
    6.6430   31.4700  -13.8020 H   0  0  0  0  0  0  0  0  0  0  0  0
    5.9790   29.7530   -7.6780 C   0  0  1  0  0  0  0  0  0  0  0  0
    6.2440   30.3560   -8.5370 H   0  0  0  0  0  0  0  0  0  0  0  0
    4.6090   29.0760   -7.9000 C   0  0  1  0  0  0  0  0  0  0  0  0
    4.3010   28.4950   -7.0300 H   0  0  0  0  0  0  0  0  0  0  0  0
    3.5870   30.2000   -8.1680 C   0  0  2  0  0  0  0  0  0  0  0  0
    3.8660   30.7260   -9.0820 H   0  0  0  0  0  0  0  0  0  0  0  0
    3.5480   31.2080   -7.0040 C   0  0  1  0  0  0  0  0  0  0  0  0
    3.1160   30.7090   -6.1360 H   0  0  0  0  0  0  0  0  0  0  0  0
    4.9550   31.7340   -6.6440 C   0  0  2  0  0  0  0  0  0  0  0  0
    5.2950   32.4120   -7.4280 H   0  0  0  0  0  0  0  0  0  0  0  0
    5.8530   30.6030   -6.5140 O   0  0  0  0  0  0  0  0  0  0  0  0
    4.9760   32.4860   -5.3030 C   0  0  0  0  0  0  0  0  0  0  0  0
    4.3650   33.3850   -5.3790 H   0  0  0  0  0  0  0  0  0  0  0  0
    6.0010   32.7820   -5.0850 H   0  0  0  0  0  0  0  0  0  0  0  0
    4.5070   31.6880   -4.2300 O   0  0  0  0  0  0  0  0  0  0  0  0
    3.5480   31.6480   -4.2720 H   0  0  0  0  0  0  0  0  0  0  0  0
    2.7350   32.3080   -7.3670 O   0  0  0  0  0  0  0  0  0  0  0  0
    1.8890   31.9720   -7.6760 H   0  0  0  0  0  0  0  0  0  0  0  0
    2.2960   29.6400   -8.3340 O   0  0  0  0  0  0  0  0  0  0  0  0
    2.1190   29.0400   -7.6060 H   0  0  0  0  0  0  0  0  0  0  0  0
    4.7000   28.2250   -9.0320 O   0  0  0  0  0  0  0  0  0  0  0  0
    4.9510   28.7530   -9.7950 H   0  0  0  0  0  0  0  0  0  0  0  0
    6.4970   28.3580   -5.0950 O   0  0  0  0  0  0  0  0  0  0  0  0
    5.9410   29.1460   -5.2710 H   0  0  0  0  0  0  0  0  0  0  0  0
  1  2  1  0  0  0  0
  1  3  1  0  0  0  0
  1  4  1  0  0  0  0
  1  5  1  0  0  0  0
  5  6  1  0  0  0  0
  5 11  2  0  0  0  0
  6  7  1  0  0  0  0
  6  8  2  0  0  0  0
  8  9  1  0  0  0  0
  8 49  1  0  0  0  0
  9 10  2  0  0  0  0
  9 27  1  0  0  0  0
 10 11  1  0  0  0  0
 10 17  1  0  0  0  0
 11 12  1  0  0  0  0
 12 13  2  0  0  0  0
 12 14  1  0  0  0  0
 14 15  1  0  0  0  0
 14 16  2  0  0  0  0
 16 17  1  0  0  0  0
 16 18  1  0  0  0  0
 18 19  1  0  0  0  0
 18 20  1  0  0  0  0
 18 21  1  0  0  0  0
 21 22  2  0  0  0  0
 21 23  1  0  0  0  0
 23 24  1  0  0  0  0
 23 25  1  0  0  0  0
 23 26  1  0  0  0  0
 27 28  1  0  0  0  0
 27 29  1  0  0  0  0
 27 37  1  0  0  0  0
 29 30  1  0  0  0  0
 29 31  1  0  0  0  0
 29 47  1  0  0  0  0
 31 32  1  0  0  0  0
 31 33  1  0  0  0  0
 31 45  1  0  0  0  0
 33 34  1  0  0  0  0
 33 35  1  0  0  0  0
 33 43  1  0  0  0  0
 35 36  1  0  0  0  0
 35 37  1  0  0  0  0
 35 38  1  0  0  0  0
 38 39  1  0  0  0  0
 38 40  1  0  0  0  0
 38 41  1  0  0  0  0
 41 42  1  0  0  0  0
 43 44  1  0  0  0  0
 45 46  1  0  0  0  0
 47 48  1  0  0  0  0
 49 50  1  0  0  0  0
M  END
>  <rseq>
1

>  <mseq>
2

>  <S>
-5.4570055

>  <rmsd_refine>
0.87838101

>  <E_conf>
57.379242

>  <E_place>
-56.155781

>  <E_score1>
2.8083081

>  <E_refine>
-26.898039

>  <E_score2>
-5.4570055

$$$$
Aloesin
  MOE2015           3D

 50 52  0  0  1  0  0  0  0  0999 V2000
   12.8900   21.9380   -3.3230 C   0  0  0  0  0  0  0  0  0  0  0  0
   12.2190   21.0850   -3.4270 H   0  0  0  0  0  0  0  0  0  0  0  0
   12.9130   22.2490   -2.2790 H   0  0  0  0  0  0  0  0  0  0  0  0
   13.8830   21.6570   -3.6670 H   0  0  0  0  0  0  0  0  0  0  0  0
   12.3810   23.0990   -4.1640 C   0  0  0  0  0  0  0  0  0  0  0  0
   11.2630   22.8700   -4.9620 C   0  0  0  0  0  0  0  0  0  0  0  0
   10.8120   21.9110   -4.9870 H   0  0  0  0  0  0  0  0  0  0  0  0
   10.7110   23.8950   -5.7360 C   0  0  0  0  0  0  0  0  0  0  0  0
   11.2460   25.1830   -5.7300 C   0  0  0  0  0  0  0  0  0  0  0  0
   12.3740   25.3940   -4.9320 C   0  0  0  0  0  0  0  0  0  0  0  0
   12.9840   24.3840   -4.1600 C   0  0  0  0  0  0  0  0  0  0  0  0
   14.1990   24.7470   -3.4270 C   0  0  0  0  0  0  0  0  0  0  0  0
   14.8150   23.9600   -2.7160 O   0  0  0  0  0  0  0  0  0  0  0  0
   14.6970   26.0930   -3.5530 C   0  0  0  0  0  0  0  0  0  0  0  0
   15.5890   26.3420   -3.0370 H   0  0  0  0  0  0  0  0  0  0  0  0
   14.0390   27.0130   -4.2970 C   0  0  0  0  0  0  0  0  0  0  0  0
   12.9030   26.6550   -4.9250 O   0  0  0  0  0  0  0  0  0  0  0  0
   14.4290   28.4700   -4.4910 C   0  0  0  0  0  0  0  0  0  0  0  0
   15.4630   28.6100   -4.2050 H   0  0  0  0  0  0  0  0  0  0  0  0
   13.7460   29.0840   -3.9190 H   0  0  0  0  0  0  0  0  0  0  0  0
   14.2560   28.7880   -5.9680 C   0  0  0  0  0  0  0  0  0  0  0  0
   13.1740   29.0870   -6.3980 O   0  0  0  0  0  0  0  0  0  0  0  0
   15.4360   28.6840   -6.9080 C   0  0  0  0  0  0  0  0  0  0  0  0
   16.1460   29.4420   -6.6090 H   0  0  0  0  0  0  0  0  0  0  0  0
   15.0810   28.8530   -7.9160 H   0  0  0  0  0  0  0  0  0  0  0  0
   15.8500   27.6910   -6.7950 H   0  0  0  0  0  0  0  0  0  0  0  0
   10.6970   26.3440   -6.5690 C   0  0  1  0  0  0  0  0  0  0  0  0
   11.0570   27.2950   -6.2020 H   0  0  0  0  0  0  0  0  0  0  0  0
   11.1280   26.1720   -8.0410 C   0  0  1  0  0  0  0  0  0  0  0  0
   10.8020   25.2150   -8.4510 H   0  0  0  0  0  0  0  0  0  0  0  0
   10.5110   27.3290   -8.8520 C   0  0  2  0  0  0  0  0  0  0  0  0
   10.9770   28.2460   -8.5100 H   0  0  0  0  0  0  0  0  0  0  0  0
    8.9880   27.4550   -8.6520 C   0  0  1  0  0  0  0  0  0  0  0  0
    8.5120   26.5950   -9.1100 H   0  0  0  0  0  0  0  0  0  0  0  0
    8.6200   27.4790   -7.1600 C   0  0  2  0  0  0  0  0  0  0  0  0
    8.9680   28.4140   -6.7280 H   0  0  0  0  0  0  0  0  0  0  0  0
    9.2520   26.3380   -6.5290 O   0  0  0  0  0  0  0  0  0  0  0  0
    7.1100   27.3590   -6.9280 C   0  0  0  0  0  0  0  0  0  0  0  0
    6.7520   26.4060   -7.3180 H   0  0  0  0  0  0  0  0  0  0  0  0
    6.5940   28.1720   -7.4410 H   0  0  0  0  0  0  0  0  0  0  0  0
    6.8280   27.4370   -5.5460 O   0  0  0  0  0  0  0  0  0  0  0  0
    7.2920   26.7250   -5.0980 H   0  0  0  0  0  0  0  0  0  0  0  0
    8.5050   28.6320   -9.2760 O   0  0  0  0  0  0  0  0  0  0  0  0
    9.1140   29.3530   -9.1020 H   0  0  0  0  0  0  0  0  0  0  0  0
   10.7800   27.1650  -10.2320 O   0  0  0  0  0  0  0  0  0  0  0  0
   10.2180   26.4680  -10.5810 H   0  0  0  0  0  0  0  0  0  0  0  0
   12.5420   26.2640   -8.0790 O   0  0  0  0  0  0  0  0  0  0  0  0
   12.8140   27.1390   -7.7900 H   0  0  0  0  0  0  0  0  0  0  0  0
    9.6240   23.5910   -6.4980 O   0  0  0  0  0  0  0  0  0  0  0  0
    9.2660   24.4100   -6.8940 H   0  0  0  0  0  0  0  0  0  0  0  0
  1  2  1  0  0  0  0
  1  3  1  0  0  0  0
  1  4  1  0  0  0  0
  1  5  1  0  0  0  0
  5  6  1  0  0  0  0
  5 11  2  0  0  0  0
  6  7  1  0  0  0  0
  6  8  2  0  0  0  0
  8  9  1  0  0  0  0
  8 49  1  0  0  0  0
  9 10  2  0  0  0  0
  9 27  1  0  0  0  0
 10 11  1  0  0  0  0
 10 17  1  0  0  0  0
 11 12  1  0  0  0  0
 12 13  2  0  0  0  0
 12 14  1  0  0  0  0
 14 15  1  0  0  0  0
 14 16  2  0  0  0  0
 16 17  1  0  0  0  0
 16 18  1  0  0  0  0
 18 19  1  0  0  0  0
 18 20  1  0  0  0  0
 18 21  1  0  0  0  0
 21 22  2  0  0  0  0
 21 23  1  0  0  0  0
 23 24  1  0  0  0  0
 23 25  1  0  0  0  0
 23 26  1  0  0  0  0
 27 28  1  0  0  0  0
 27 29  1  0  0  0  0
 27 37  1  0  0  0  0
 29 30  1  0  0  0  0
 29 31  1  0  0  0  0
 29 47  1  0  0  0  0
 31 32  1  0  0  0  0
 31 33  1  0  0  0  0
 31 45  1  0  0  0  0
 33 34  1  0  0  0  0
 33 35  1  0  0  0  0
 33 43  1  0  0  0  0
 35 36  1  0  0  0  0
 35 37  1  0  0  0  0
 35 38  1  0  0  0  0
 38 39  1  0  0  0  0
 38 40  1  0  0  0  0
 38 41  1  0  0  0  0
 41 42  1  0  0  0  0
 43 44  1  0  0  0  0
 45 46  1  0  0  0  0
 47 48  1  0  0  0  0
 49 50  1  0  0  0  0
M  END
>  <rseq>
1

>  <mseq>
2

>  <S>
-5.4559493

>  <rmsd_refine>
1.5223504

>  <E_conf>
52.016476

>  <E_place>
-59.726009

>  <E_score1>
-2.8892848

>  <E_refine>
-23.432642

>  <E_score2>
-5.4559493

$$$$
Aloesin
  MOE2015           3D

 50 52  0  0  1  0  0  0  0  0999 V2000
    9.7960   25.7510   -6.7290 C   0  0  0  0  0  0  0  0  0  0  0  0
    9.6490   25.3230   -5.7380 H   0  0  0  0  0  0  0  0  0  0  0  0
   10.7990   26.1730   -6.7960 H   0  0  0  0  0  0  0  0  0  0  0  0
    9.6490   24.9770   -7.4820 H   0  0  0  0  0  0  0  0  0  0  0  0
    8.7860   26.8630   -6.9690 C   0  0  0  0  0  0  0  0  0  0  0  0
    7.9070   27.1620   -5.9350 C   0  0  0  0  0  0  0  0  0  0  0  0
    7.9500   26.6220   -5.0240 H   0  0  0  0  0  0  0  0  0  0  0  0
    6.9590   28.1770   -6.0710 C   0  0  0  0  0  0  0  0  0  0  0  0
    6.8460   28.9250   -7.2450 C   0  0  0  0  0  0  0  0  0  0  0  0
    7.7180   28.5940   -8.2900 C   0  0  0  0  0  0  0  0  0  0  0  0
    8.7040   27.5880   -8.1850 C   0  0  0  0  0  0  0  0  0  0  0  0
    9.5610   27.3610   -9.3450 C   0  0  0  0  0  0  0  0  0  0  0  0
   10.5010   26.5730   -9.3450 O   0  0  0  0  0  0  0  0  0  0  0  0
    9.2940   28.1070  -10.5420 C   0  0  0  0  0  0  0  0  0  0  0  0
    9.8900   27.9000  -11.3910 H   0  0  0  0  0  0  0  0  0  0  0  0
    8.3130   29.0390  -10.5830 C   0  0  0  0  0  0  0  0  0  0  0  0
    7.5710   29.2780   -9.4790 O   0  0  0  0  0  0  0  0  0  0  0  0
    7.9440   29.8810  -11.7860 C   0  0  0  0  0  0  0  0  0  0  0  0
    8.8250   30.0100  -12.3920 H   0  0  0  0  0  0  0  0  0  0  0  0
    7.5120   30.8170  -11.4580 H   0  0  0  0  0  0  0  0  0  0  0  0
    6.9250   29.0910  -12.5820 C   0  0  0  0  0  0  0  0  0  0  0  0
    7.2830   28.2130  -13.3160 O   0  0  0  0  0  0  0  0  0  0  0  0
    5.4580   29.4460  -12.4980 C   0  0  0  0  0  0  0  0  0  0  0  0
    5.2200   29.6050  -11.4580 H   0  0  0  0  0  0  0  0  0  0  0  0
    4.8900   28.6270  -12.9170 H   0  0  0  0  0  0  0  0  0  0  0  0
    5.3210   30.3540  -13.0690 H   0  0  0  0  0  0  0  0  0  0  0  0
    5.8000   30.0290   -7.4620 C   0  0  1  0  0  0  0  0  0  0  0  0
    6.1260   30.7230   -8.2250 H   0  0  0  0  0  0  0  0  0  0  0  0
    4.4530   29.3830   -7.8560 C   0  0  1  0  0  0  0  0  0  0  0  0
    4.0710   28.7380   -7.0630 H   0  0  0  0  0  0  0  0  0  0  0  0
    3.4620   30.5340   -8.1120 C   0  0  2  0  0  0  0  0  0  0  0  0
    3.8280   31.1460   -8.9350 H   0  0  0  0  0  0  0  0  0  0  0  0
    3.3110   31.4190   -6.8610 C   0  0  1  0  0  0  0  0  0  0  0  0
    2.7880   30.8440   -6.0950 H   0  0  0  0  0  0  0  0  0  0  0  0
    4.6680   31.8900   -6.2920 C   0  0  2  0  0  0  0  0  0  0  0  0
    5.0780   32.6830   -6.9200 H   0  0  0  0  0  0  0  0  0  0  0  0
    5.5710   30.7460   -6.2180 O   0  0  0  0  0  0  0  0  0  0  0  0
    4.4620   32.4180   -4.8640 C   0  0  0  0  0  0  0  0  0  0  0  0
    3.9700   31.6540   -4.2610 H   0  0  0  0  0  0  0  0  0  0  0  0
    3.8260   33.3040   -4.8950 H   0  0  0  0  0  0  0  0  0  0  0  0
    5.6850   32.7570   -4.2510 O   0  0  0  0  0  0  0  0  0  0  0  0
    6.2520   31.9810   -4.2420 H   0  0  0  0  0  0  0  0  0  0  0  0
    2.5420   32.5580   -7.1980 O   0  0  0  0  0  0  0  0  0  0  0  0
    1.7220   32.2640   -7.6060 H   0  0  0  0  0  0  0  0  0  0  0  0
    2.1940   30.0050   -8.4600 O   0  0  0  0  0  0  0  0  0  0  0  0
    1.9470   29.3320   -7.8210 H   0  0  0  0  0  0  0  0  0  0  0  0
    4.6340   28.6170   -9.0360 O   0  0  0  0  0  0  0  0  0  0  0  0
    4.9140   29.2000   -9.7450 H   0  0  0  0  0  0  0  0  0  0  0  0
    6.1460   28.4000   -5.0030 O   0  0  0  0  0  0  0  0  0  0  0  0
    5.6190   29.2120   -5.1510 H   0  0  0  0  0  0  0  0  0  0  0  0
  1  2  1  0  0  0  0
  1  3  1  0  0  0  0
  1  4  1  0  0  0  0
  1  5  1  0  0  0  0
  5  6  1  0  0  0  0
  5 11  2  0  0  0  0
  6  7  1  0  0  0  0
  6  8  2  0  0  0  0
  8  9  1  0  0  0  0
  8 49  1  0  0  0  0
  9 10  2  0  0  0  0
  9 27  1  0  0  0  0
 10 11  1  0  0  0  0
 10 17  1  0  0  0  0
 11 12  1  0  0  0  0
 12 13  2  0  0  0  0
 12 14  1  0  0  0  0
 14 15  1  0  0  0  0
 14 16  2  0  0  0  0
 16 17  1  0  0  0  0
 16 18  1  0  0  0  0
 18 19  1  0  0  0  0
 18 20  1  0  0  0  0
 18 21  1  0  0  0  0
 21 22  2  0  0  0  0
 21 23  1  0  0  0  0
 23 24  1  0  0  0  0
 23 25  1  0  0  0  0
 23 26  1  0  0  0  0
 27 28  1  0  0  0  0
 27 29  1  0  0  0  0
 27 37  1  0  0  0  0
 29 30  1  0  0  0  0
 29 31  1  0  0  0  0
 29 47  1  0  0  0  0
 31 32  1  0  0  0  0
 31 33  1  0  0  0  0
 31 45  1  0  0  0  0
 33 34  1  0  0  0  0
 33 35  1  0  0  0  0
 33 43  1  0  0  0  0
 35 36  1  0  0  0  0
 35 37  1  0  0  0  0
 35 38  1  0  0  0  0
 38 39  1  0  0  0  0
 38 40  1  0  0  0  0
 38 41  1  0  0  0  0
 41 42  1  0  0  0  0
 43 44  1  0  0  0  0
 45 46  1  0  0  0  0
 47 48  1  0  0  0  0
 49 50  1  0  0  0  0
M  END
>  <rseq>
1

>  <mseq>
2

>  <S>
-5.4499874

>  <rmsd_refine>
0.77265483

>  <E_conf>
51.285618

>  <E_place>
-84.752113

>  <E_score1>
-4.1300516

>  <E_refine>
-28.46117

>  <E_score2>
-5.4499874

$$$$
Aloesin
  MOE2015           3D

 50 52  0  0  1  0  0  0  0  0999 V2000
    7.2480   22.1030   -5.8220 C   0  0  0  0  0  0  0  0  0  0  0  0
    6.3200   21.5400   -5.7170 H   0  0  0  0  0  0  0  0  0  0  0  0
    7.7950   22.0760   -4.8800 H   0  0  0  0  0  0  0  0  0  0  0  0
    7.8390   21.6750   -6.6330 H   0  0  0  0  0  0  0  0  0  0  0  0
    6.9390   23.5530   -6.1610 C   0  0  0  0  0  0  0  0  0  0  0  0
    5.6000   23.9120   -6.2560 C   0  0  0  0  0  0  0  0  0  0  0  0
    4.8390   23.1930   -6.0840 H   0  0  0  0  0  0  0  0  0  0  0  0
    5.2310   25.2200   -6.5730 C   0  0  0  0  0  0  0  0  0  0  0  0
    6.1780   26.2120   -6.8260 C   0  0  0  0  0  0  0  0  0  0  0  0
    7.5270   25.8430   -6.7140 C   0  0  0  0  0  0  0  0  0  0  0  0
    7.9420   24.5310   -6.3840 C   0  0  0  0  0  0  0  0  0  0  0  0
    9.3790   24.2720   -6.3160 C   0  0  0  0  0  0  0  0  0  0  0  0
    9.8530   23.1870   -6.0000 O   0  0  0  0  0  0  0  0  0  0  0  0
   10.2790   25.3420   -6.6460 C   0  0  0  0  0  0  0  0  0  0  0  0
   11.3190   25.1360   -6.6440 H   0  0  0  0  0  0  0  0  0  0  0  0
    9.8100   26.5700   -6.9640 C   0  0  0  0  0  0  0  0  0  0  0  0
    8.4810   26.8030   -6.9600 O   0  0  0  0  0  0  0  0  0  0  0  0
   10.6460   27.7600   -7.3750 C   0  0  0  0  0  0  0  0  0  0  0  0
   11.4650   27.8780   -6.6780 H   0  0  0  0  0  0  0  0  0  0  0  0
   10.0160   28.6340   -7.4610 H   0  0  0  0  0  0  0  0  0  0  0  0
   11.1930   27.4060   -8.7410 C   0  0  0  0  0  0  0  0  0  0  0  0
   12.3390   27.0760   -8.8450 O   0  0  0  0  0  0  0  0  0  0  0  0
   10.3070   27.4680   -9.9670 C   0  0  0  0  0  0  0  0  0  0  0  0
   10.1210   28.5110  -10.1730 H   0  0  0  0  0  0  0  0  0  0  0  0
    9.3880   26.9490   -9.7360 H   0  0  0  0  0  0  0  0  0  0  0  0
   10.8290   26.9980  -10.7880 H   0  0  0  0  0  0  0  0  0  0  0  0
    5.7310   27.6290   -7.2080 C   0  0  1  0  0  0  0  0  0  0  0  0
    4.6870   27.6500   -7.4900 H   0  0  0  0  0  0  0  0  0  0  0  0
    5.9720   28.5670   -6.0040 C   0  0  1  0  0  0  0  0  0  0  0  0
    7.0050   28.5330   -5.6560 H   0  0  0  0  0  0  0  0  0  0  0  0
    5.6210   30.0030   -6.4330 C   0  0  2  0  0  0  0  0  0  0  0  0
    4.5540   30.0580   -6.6570 H   0  0  0  0  0  0  0  0  0  0  0  0
    6.4150   30.4270   -7.6810 C   0  0  1  0  0  0  0  0  0  0  0  0
    7.4720   30.4800   -7.4250 H   0  0  0  0  0  0  0  0  0  0  0  0
    6.2420   29.4210   -8.8340 C   0  0  2  0  0  0  0  0  0  0  0  0
    5.2250   29.4830   -9.2260 H   0  0  0  0  0  0  0  0  0  0  0  0
    6.5440   28.0940   -8.3220 O   0  0  0  0  0  0  0  0  0  0  0  0
    7.2440   29.7220   -9.9590 C   0  0  0  0  0  0  0  0  0  0  0  0
    8.2570   29.6760   -9.5610 H   0  0  0  0  0  0  0  0  0  0  0  0
    7.0700   30.7260  -10.3460 H   0  0  0  0  0  0  0  0  0  0  0  0
    7.1130   28.7970  -11.0190 O   0  0  0  0  0  0  0  0  0  0  0  0
    7.3020   27.9150  -10.6870 H   0  0  0  0  0  0  0  0  0  0  0  0
    5.9630   31.7000   -8.1020 O   0  0  0  0  0  0  0  0  0  0  0  0
    6.0110   32.3090   -7.3580 H   0  0  0  0  0  0  0  0  0  0  0  0
    5.9190   30.8870   -5.3650 O   0  0  0  0  0  0  0  0  0  0  0  0
    6.8420   30.7910   -5.1170 H   0  0  0  0  0  0  0  0  0  0  0  0
    5.0990   28.1610   -4.9650 O   0  0  0  0  0  0  0  0  0  0  0  0
    5.1790   28.7840   -4.2370 H   0  0  0  0  0  0  0  0  0  0  0  0
    3.8960   25.4890   -6.6230 O   0  0  0  0  0  0  0  0  0  0  0  0
    3.7270   26.4460   -6.7130 H   0  0  0  0  0  0  0  0  0  0  0  0
  1  2  1  0  0  0  0
  1  3  1  0  0  0  0
  1  4  1  0  0  0  0
  1  5  1  0  0  0  0
  5  6  1  0  0  0  0
  5 11  2  0  0  0  0
  6  7  1  0  0  0  0
  6  8  2  0  0  0  0
  8  9  1  0  0  0  0
  8 49  1  0  0  0  0
  9 10  2  0  0  0  0
  9 27  1  0  0  0  0
 10 11  1  0  0  0  0
 10 17  1  0  0  0  0
 11 12  1  0  0  0  0
 12 13  2  0  0  0  0
 12 14  1  0  0  0  0
 14 15  1  0  0  0  0
 14 16  2  0  0  0  0
 16 17  1  0  0  0  0
 16 18  1  0  0  0  0
 18 19  1  0  0  0  0
 18 20  1  0  0  0  0
 18 21  1  0  0  0  0
 21 22  2  0  0  0  0
 21 23  1  0  0  0  0
 23 24  1  0  0  0  0
 23 25  1  0  0  0  0
 23 26  1  0  0  0  0
 27 28  1  0  0  0  0
 27 29  1  0  0  0  0
 27 37  1  0  0  0  0
 29 30  1  0  0  0  0
 29 31  1  0  0  0  0
 29 47  1  0  0  0  0
 31 32  1  0  0  0  0
 31 33  1  0  0  0  0
 31 45  1  0  0  0  0
 33 34  1  0  0  0  0
 33 35  1  0  0  0  0
 33 43  1  0  0  0  0
 35 36  1  0  0  0  0
 35 37  1  0  0  0  0
 35 38  1  0  0  0  0
 38 39  1  0  0  0  0
 38 40  1  0  0  0  0
 38 41  1  0  0  0  0
 41 42  1  0  0  0  0
 43 44  1  0  0  0  0
 45 46  1  0  0  0  0
 47 48  1  0  0  0  0
 49 50  1  0  0  0  0
M  END
>  <rseq>
1

>  <mseq>
2

>  <S>
-5.3074307

>  <rmsd_refine>
1.6496371

>  <E_conf>
51.418949

>  <E_place>
-56.445896

>  <E_score1>
1.4934605

>  <E_refine>
-21.935997

>  <E_score2>
-5.3074307

$$$$
Aloesin
  MOE2015           3D

 50 52  0  0  1  0  0  0  0  0999 V2000
    2.6730   27.2180  -14.0260 C   0  0  0  0  0  0  0  0  0  0  0  0
    1.6580   26.8210  -13.9850 H   0  0  0  0  0  0  0  0  0  0  0  0
    3.3510   26.4400  -14.3790 H   0  0  0  0  0  0  0  0  0  0  0  0
    2.6950   28.0850  -14.6860 H   0  0  0  0  0  0  0  0  0  0  0  0
    3.1170   27.6550  -12.6380 C   0  0  0  0  0  0  0  0  0  0  0  0
    2.2170   27.4710  -11.5940 C   0  0  0  0  0  0  0  0  0  0  0  0
    1.2640   27.0470  -11.7780 H   0  0  0  0  0  0  0  0  0  0  0  0
    2.5520   27.8380  -10.2890 C   0  0  0  0  0  0  0  0  0  0  0  0
    3.7880   28.4030   -9.9760 C   0  0  0  0  0  0  0  0  0  0  0  0
    4.6790   28.6010  -11.0410 C   0  0  0  0  0  0  0  0  0  0  0  0
    4.3880   28.2260  -12.3730 C   0  0  0  0  0  0  0  0  0  0  0  0
    5.4280   28.4360  -13.3790 C   0  0  0  0  0  0  0  0  0  0  0  0
    5.2860   28.1630  -14.5670 O   0  0  0  0  0  0  0  0  0  0  0  0
    6.6840   28.9860  -12.9520 C   0  0  0  0  0  0  0  0  0  0  0  0
    7.4420   29.1160  -13.6810 H   0  0  0  0  0  0  0  0  0  0  0  0
    6.8880   29.3330  -11.6610 C   0  0  0  0  0  0  0  0  0  0  0  0
    5.9000   29.1670  -10.7590 O   0  0  0  0  0  0  0  0  0  0  0  0
    8.1570   29.9250  -11.0940 C   0  0  0  0  0  0  0  0  0  0  0  0
    7.9070   30.8280  -10.5530 H   0  0  0  0  0  0  0  0  0  0  0  0
    8.8570   30.0860  -11.9010 H   0  0  0  0  0  0  0  0  0  0  0  0
    8.7390   28.9020  -10.1340 C   0  0  0  0  0  0  0  0  0  0  0  0
    8.4920   28.9660   -8.9620 O   0  0  0  0  0  0  0  0  0  0  0  0
    9.6800   27.8330  -10.6400 C   0  0  0  0  0  0  0  0  0  0  0  0
   10.6390   28.3050  -10.8000 H   0  0  0  0  0  0  0  0  0  0  0  0
    9.2770   27.4570  -11.5680 H   0  0  0  0  0  0  0  0  0  0  0  0
    9.7430   27.0570   -9.8900 H   0  0  0  0  0  0  0  0  0  0  0  0
    4.1430   28.7640   -8.5260 C   0  0  1  0  0  0  0  0  0  0  0  0
    3.3030   28.6190   -7.8630 H   0  0  0  0  0  0  0  0  0  0  0  0
    5.3370   27.8930   -8.0500 C   0  0  1  0  0  0  0  0  0  0  0  0
    6.1590   27.8930   -8.7610 H   0  0  0  0  0  0  0  0  0  0  0  0
    5.8650   28.4200   -6.6980 C   0  0  2  0  0  0  0  0  0  0  0  0
    5.1310   28.1980   -5.9220 H   0  0  0  0  0  0  0  0  0  0  0  0
    6.1280   29.9400   -6.7100 C   0  0  1  0  0  0  0  0  0  0  0  0
    6.9590   30.1610   -7.3790 H   0  0  0  0  0  0  0  0  0  0  0  0
    4.8870   30.6960   -7.2050 C   0  0  2  0  0  0  0  0  0  0  0  0
    4.0760   30.5680   -6.4860 H   0  0  0  0  0  0  0  0  0  0  0  0
    4.5410   30.1550   -8.5040 O   0  0  0  0  0  0  0  0  0  0  0  0
    5.1540   32.1940   -7.3950 C   0  0  0  0  0  0  0  0  0  0  0  0
    5.9110   32.3390   -8.1670 H   0  0  0  0  0  0  0  0  0  0  0  0
    5.5050   32.6340   -6.4610 H   0  0  0  0  0  0  0  0  0  0  0  0
    3.9520   32.8260   -7.7810 O   0  0  0  0  0  0  0  0  0  0  0  0
    3.5280   32.2750   -8.4440 H   0  0  0  0  0  0  0  0  0  0  0  0
    6.4560   30.3770   -5.4040 O   0  0  0  0  0  0  0  0  0  0  0  0
    5.8050   30.0410   -4.7830 H   0  0  0  0  0  0  0  0  0  0  0  0
    7.0770   27.7510   -6.3980 O   0  0  0  0  0  0  0  0  0  0  0  0
    7.7240   27.9760   -7.0740 H   0  0  0  0  0  0  0  0  0  0  0  0
    4.8660   26.5630   -7.9010 O   0  0  0  0  0  0  0  0  0  0  0  0
    4.2570   26.5260   -7.1600 H   0  0  0  0  0  0  0  0  0  0  0  0
    1.6110   27.6160   -9.3270 O   0  0  0  0  0  0  0  0  0  0  0  0
    1.9060   27.9430   -8.4560 H   0  0  0  0  0  0  0  0  0  0  0  0
  1  2  1  0  0  0  0
  1  3  1  0  0  0  0
  1  4  1  0  0  0  0
  1  5  1  0  0  0  0
  5  6  1  0  0  0  0
  5 11  2  0  0  0  0
  6  7  1  0  0  0  0
  6  8  2  0  0  0  0
  8  9  1  0  0  0  0
  8 49  1  0  0  0  0
  9 10  2  0  0  0  0
  9 27  1  0  0  0  0
 10 11  1  0  0  0  0
 10 17  1  0  0  0  0
 11 12  1  0  0  0  0
 12 13  2  0  0  0  0
 12 14  1  0  0  0  0
 14 15  1  0  0  0  0
 14 16  2  0  0  0  0
 16 17  1  0  0  0  0
 16 18  1  0  0  0  0
 18 19  1  0  0  0  0
 18 20  1  0  0  0  0
 18 21  1  0  0  0  0
 21 22  2  0  0  0  0
 21 23  1  0  0  0  0
 23 24  1  0  0  0  0
 23 25  1  0  0  0  0
 23 26  1  0  0  0  0
 27 28  1  0  0  0  0
 27 29  1  0  0  0  0
 27 37  1  0  0  0  0
 29 30  1  0  0  0  0
 29 31  1  0  0  0  0
 29 47  1  0  0  0  0
 31 32  1  0  0  0  0
 31 33  1  0  0  0  0
 31 45  1  0  0  0  0
 33 34  1  0  0  0  0
 33 35  1  0  0  0  0
 33 43  1  0  0  0  0
 35 36  1  0  0  0  0
 35 37  1  0  0  0  0
 35 38  1  0  0  0  0
 38 39  1  0  0  0  0
 38 40  1  0  0  0  0
 38 41  1  0  0  0  0
 41 42  1  0  0  0  0
 43 44  1  0  0  0  0
 45 46  1  0  0  0  0
 47 48  1  0  0  0  0
 49 50  1  0  0  0  0
M  END
>  <rseq>
1

>  <mseq>
2

>  <S>
-5.2916636

>  <rmsd_refine>
1.6457721

>  <E_conf>
53.605328

>  <E_place>
-49.078381

>  <E_score1>
-3.2909653

>  <E_refine>
-27.245529

>  <E_score2>
-5.2916636

$$$$
Stearic acid
  MOE2015           3D

 55 54  0  0  0  0  0  0  0  0999 V2000
   16.0820   31.0320   -3.3910 C   0  0  0  0  0  0  0  0  0  0  0  0
   16.4420   32.0520   -3.5270 H   0  0  0  0  0  0  0  0  0  0  0  0
   16.9310   30.3800   -3.1820 H   0  0  0  0  0  0  0  0  0  0  0  0
   15.3910   31.0080   -2.5470 H   0  0  0  0  0  0  0  0  0  0  0  0
   15.3660   30.5720   -4.6630 C   0  0  0  0  0  0  0  0  0  0  0  0
   16.0640   30.6310   -5.4980 H   0  0  0  0  0  0  0  0  0  0  0  0
   14.5280   31.2420   -4.8570 H   0  0  0  0  0  0  0  0  0  0  0  0
   14.8510   29.1310   -4.5420 C   0  0  0  0  0  0  0  0  0  0  0  0
   14.1770   29.0570   -3.6860 H   0  0  0  0  0  0  0  0  0  0  0  0
   15.6950   28.4570   -4.3880 H   0  0  0  0  0  0  0  0  0  0  0  0
   14.0970   28.7260   -5.8160 C   0  0  0  0  0  0  0  0  0  0  0  0
   14.7560   28.8500   -6.6770 H   0  0  0  0  0  0  0  0  0  0  0  0
   13.2410   29.3910   -5.9340 H   0  0  0  0  0  0  0  0  0  0  0  0
   13.6230   27.2620   -5.7560 C   0  0  0  0  0  0  0  0  0  0  0  0
   12.9810   27.1130   -4.8860 H   0  0  0  0  0  0  0  0  0  0  0  0
   14.4990   26.6210   -5.6500 H   0  0  0  0  0  0  0  0  0  0  0  0
   12.8700   26.8390   -7.0300 C   0  0  0  0  0  0  0  0  0  0  0  0
   12.8190   25.7490   -7.0690 H   0  0  0  0  0  0  0  0  0  0  0  0
   13.4360   27.1810   -7.8960 H   0  0  0  0  0  0  0  0  0  0  0  0
   11.4410   27.4000   -7.0960 C   0  0  0  0  0  0  0  0  0  0  0  0
   11.4570   28.4560   -6.8320 H   0  0  0  0  0  0  0  0  0  0  0  0
   10.8090   26.8720   -6.3800 H   0  0  0  0  0  0  0  0  0  0  0  0
   10.8530   27.2600   -8.5070 C   0  0  0  0  0  0  0  0  0  0  0  0
   10.7010   26.2070   -8.7500 H   0  0  0  0  0  0  0  0  0  0  0  0
   11.5610   27.6800   -9.2230 H   0  0  0  0  0  0  0  0  0  0  0  0
    9.5180   28.0140   -8.6110 C   0  0  0  0  0  0  0  0  0  0  0  0
    9.5900   28.9570   -8.0680 H   0  0  0  0  0  0  0  0  0  0  0  0
    8.7260   27.4160   -8.1580 H   0  0  0  0  0  0  0  0  0  0  0  0
    9.1660   28.3250  -10.0710 C   0  0  0  0  0  0  0  0  0  0  0  0
    8.9780   27.3930  -10.5980 H   0  0  0  0  0  0  0  0  0  0  0  0
   10.0070   28.8270  -10.5490 H   0  0  0  0  0  0  0  0  0  0  0  0
    7.9340   29.2420  -10.1380 C   0  0  0  0  0  0  0  0  0  0  0  0
    8.1190   30.1230   -9.5210 H   0  0  0  0  0  0  0  0  0  0  0  0
    7.0690   28.7180   -9.7300 H   0  0  0  0  0  0  0  0  0  0  0  0
    7.6130   29.7290  -11.5590 C   0  0  0  0  0  0  0  0  0  0  0  0
    8.4990   30.1900  -11.9920 H   0  0  0  0  0  0  0  0  0  0  0  0
    6.8370   30.4880  -11.4800 H   0  0  0  0  0  0  0  0  0  0  0  0
    7.1240   28.6020  -12.4800 C   0  0  0  0  0  0  0  0  0  0  0  0
    6.2760   28.1020  -12.0140 H   0  0  0  0  0  0  0  0  0  0  0  0
    7.9240   27.8750  -12.6060 H   0  0  0  0  0  0  0  0  0  0  0  0
    6.7030   29.0740  -13.8780 C   0  0  0  0  0  0  0  0  0  0  0  0
    6.4630   28.1900  -14.4700 H   0  0  0  0  0  0  0  0  0  0  0  0
    7.5370   29.5970  -14.3450 H   0  0  0  0  0  0  0  0  0  0  0  0
    5.4810   30.0010  -13.8420 C   0  0  0  0  0  0  0  0  0  0  0  0
    5.8040   30.9900  -13.5300 H   0  0  0  0  0  0  0  0  0  0  0  0
    4.7610   29.6150  -13.1190 H   0  0  0  0  0  0  0  0  0  0  0  0
    4.7860   30.1250  -15.2040 C   0  0  0  0  0  0  0  0  0  0  0  0
    4.4770   29.1350  -15.5420 H   0  0  0  0  0  0  0  0  0  0  0  0
    5.4690   30.5600  -15.9350 H   0  0  0  0  0  0  0  0  0  0  0  0
    3.5490   31.0260  -15.0590 C   0  0  0  0  0  0  0  0  0  0  0  0
    3.8800   32.0370  -14.8240 H   0  0  0  0  0  0  0  0  0  0  0  0
    2.9300   30.6660  -14.2370 H   0  0  0  0  0  0  0  0  0  0  0  0
    2.6750   31.0660  -16.3100 C   0  0  0  0  0  0  0  0  0  0  0  0
    2.4170   32.1920  -16.7870 O   0  0  0  0  0  0  0  0  0  0  0  0
    2.2650   29.9750  -16.7620 O   0  5  0  0  0  0  0  0  0  0  0  0
  1  2  1  0  0  0  0
  1  3  1  0  0  0  0
  1  4  1  0  0  0  0
  1  5  1  0  0  0  0
  5  6  1  0  0  0  0
  5  7  1  0  0  0  0
  5  8  1  0  0  0  0
  8  9  1  0  0  0  0
  8 10  1  0  0  0  0
  8 11  1  0  0  0  0
 11 12  1  0  0  0  0
 11 13  1  0  0  0  0
 11 14  1  0  0  0  0
 14 15  1  0  0  0  0
 14 16  1  0  0  0  0
 14 17  1  0  0  0  0
 17 18  1  0  0  0  0
 17 19  1  0  0  0  0
 17 20  1  0  0  0  0
 20 21  1  0  0  0  0
 20 22  1  0  0  0  0
 20 23  1  0  0  0  0
 23 24  1  0  0  0  0
 23 25  1  0  0  0  0
 23 26  1  0  0  0  0
 26 27  1  0  0  0  0
 26 28  1  0  0  0  0
 26 29  1  0  0  0  0
 29 30  1  0  0  0  0
 29 31  1  0  0  0  0
 29 32  1  0  0  0  0
 32 33  1  0  0  0  0
 32 34  1  0  0  0  0
 32 35  1  0  0  0  0
 35 36  1  0  0  0  0
 35 37  1  0  0  0  0
 35 38  1  0  0  0  0
 38 39  1  0  0  0  0
 38 40  1  0  0  0  0
 38 41  1  0  0  0  0
 41 42  1  0  0  0  0
 41 43  1  0  0  0  0
 41 44  1  0  0  0  0
 44 45  1  0  0  0  0
 44 46  1  0  0  0  0
 44 47  1  0  0  0  0
 47 48  1  0  0  0  0
 47 49  1  0  0  0  0
 47 50  1  0  0  0  0
 50 51  1  0  0  0  0
 50 52  1  0  0  0  0
 50 53  1  0  0  0  0
 53 54  2  0  0  0  0
 53 55  1  0  0  0  0
M  CHG  1  55  -1
M  END
>  <rseq>
1

>  <mseq>
3

>  <S>
-6.8552785

>  <rmsd_refine>
2.4786153

>  <E_conf>
-80.56237

>  <E_place>
-64.466644

>  <E_score1>
3.1698875

>  <E_refine>
-32.314693

>  <E_score2>
-6.8552785

$$$$
Stearic acid
  MOE2015           3D

 55 54  0  0  0  0  0  0  0  0999 V2000
   -0.6940   31.9180  -16.6020 C   0  0  0  0  0  0  0  0  0  0  0  0
   -1.1060   32.6690  -17.2750 H   0  0  0  0  0  0  0  0  0  0  0  0
   -0.9990   32.1510  -15.5810 H   0  0  0  0  0  0  0  0  0  0  0  0
   -1.0790   30.9360  -16.8820 H   0  0  0  0  0  0  0  0  0  0  0  0
    0.8330   31.9270  -16.7020 C   0  0  0  0  0  0  0  0  0  0  0  0
    1.1980   32.9150  -16.4200 H   0  0  0  0  0  0  0  0  0  0  0  0
    1.1140   31.7310  -17.7320 H   0  0  0  0  0  0  0  0  0  0  0  0
    1.4590   30.8620  -15.7920 C   0  0  0  0  0  0  0  0  0  0  0  0
    1.2050   29.8690  -16.1670 H   0  0  0  0  0  0  0  0  0  0  0  0
    1.0410   30.9700  -14.7900 H   0  0  0  0  0  0  0  0  0  0  0  0
    2.9870   31.0060  -15.7130 C   0  0  0  0  0  0  0  0  0  0  0  0
    3.2420   32.0270  -15.4270 H   0  0  0  0  0  0  0  0  0  0  0  0
    3.4290   30.8000  -16.6860 H   0  0  0  0  0  0  0  0  0  0  0  0
    3.5620   30.0320  -14.6760 C   0  0  0  0  0  0  0  0  0  0  0  0
    3.4670   29.0110  -15.0510 H   0  0  0  0  0  0  0  0  0  0  0  0
    2.9920   30.1200  -13.7500 H   0  0  0  0  0  0  0  0  0  0  0  0
    5.0340   30.3360  -14.3700 C   0  0  0  0  0  0  0  0  0  0  0  0
    5.1100   31.3480  -13.9730 H   0  0  0  0  0  0  0  0  0  0  0  0
    5.6240   30.2740  -15.2850 H   0  0  0  0  0  0  0  0  0  0  0  0
    5.5790   29.3350  -13.3390 C   0  0  0  0  0  0  0  0  0  0  0  0
    5.6690   28.3550  -13.8110 H   0  0  0  0  0  0  0  0  0  0  0  0
    4.8810   29.2580  -12.5030 H   0  0  0  0  0  0  0  0  0  0  0  0
    6.9440   29.7710  -12.7940 C   0  0  0  0  0  0  0  0  0  0  0  0
    6.8270   30.6880  -12.2200 H   0  0  0  0  0  0  0  0  0  0  0  0
    7.6240   29.9620  -13.6260 H   0  0  0  0  0  0  0  0  0  0  0  0
    7.5440   28.6870  -11.8900 C   0  0  0  0  0  0  0  0  0  0  0  0
    7.8240   27.8460  -12.5230 H   0  0  0  0  0  0  0  0  0  0  0  0
    6.8080   28.3630  -11.1540 H   0  0  0  0  0  0  0  0  0  0  0  0
    8.7840   29.2140  -11.1580 C   0  0  0  0  0  0  0  0  0  0  0  0
    8.4660   29.9040  -10.3760 H   0  0  0  0  0  0  0  0  0  0  0  0
    9.3790   29.7760  -11.8750 H   0  0  0  0  0  0  0  0  0  0  0  0
    9.6870   28.1220  -10.5580 C   0  0  0  0  0  0  0  0  0  0  0  0
   10.6950   28.5250  -10.4930 H   0  0  0  0  0  0  0  0  0  0  0  0
    9.7230   27.2680  -11.2340 H   0  0  0  0  0  0  0  0  0  0  0  0
    9.2530   27.6640   -9.1570 C   0  0  0  0  0  0  0  0  0  0  0  0
    8.2220   27.3170   -9.2100 H   0  0  0  0  0  0  0  0  0  0  0  0
    9.2880   28.5080   -8.4690 H   0  0  0  0  0  0  0  0  0  0  0  0
   10.1240   26.5120   -8.6150 C   0  0  0  0  0  0  0  0  0  0  0  0
   10.1580   25.7280   -9.3690 H   0  0  0  0  0  0  0  0  0  0  0  0
    9.6390   26.0930   -7.7320 H   0  0  0  0  0  0  0  0  0  0  0  0
   11.5780   26.8630   -8.2580 C   0  0  0  0  0  0  0  0  0  0  0  0
   12.0450   27.3980   -9.0840 H   0  0  0  0  0  0  0  0  0  0  0  0
   12.1260   25.9300   -8.1190 H   0  0  0  0  0  0  0  0  0  0  0  0
   11.7120   27.6750   -6.9640 C   0  0  0  0  0  0  0  0  0  0  0  0
   11.3500   27.0760   -6.1280 H   0  0  0  0  0  0  0  0  0  0  0  0
   11.1180   28.5850   -7.0270 H   0  0  0  0  0  0  0  0  0  0  0  0
   13.1840   28.0380   -6.7260 C   0  0  0  0  0  0  0  0  0  0  0  0
   13.5660   28.6050   -7.5760 H   0  0  0  0  0  0  0  0  0  0  0  0
   13.7700   27.1210   -6.6330 H   0  0  0  0  0  0  0  0  0  0  0  0
   13.3560   28.8740   -5.4520 C   0  0  0  0  0  0  0  0  0  0  0  0
   12.9930   28.3110   -4.5930 H   0  0  0  0  0  0  0  0  0  0  0  0
   12.7750   29.7910   -5.5400 H   0  0  0  0  0  0  0  0  0  0  0  0
   14.8160   29.2430   -5.2070 C   0  0  0  0  0  0  0  0  0  0  0  0
   15.5960   28.3080   -4.9240 O   0  0  0  0  0  0  0  0  0  0  0  0
   15.1240   30.4500   -5.3070 O   0  5  0  0  0  0  0  0  0  0  0  0
  1  2  1  0  0  0  0
  1  3  1  0  0  0  0
  1  4  1  0  0  0  0
  1  5  1  0  0  0  0
  5  6  1  0  0  0  0
  5  7  1  0  0  0  0
  5  8  1  0  0  0  0
  8  9  1  0  0  0  0
  8 10  1  0  0  0  0
  8 11  1  0  0  0  0
 11 12  1  0  0  0  0
 11 13  1  0  0  0  0
 11 14  1  0  0  0  0
 14 15  1  0  0  0  0
 14 16  1  0  0  0  0
 14 17  1  0  0  0  0
 17 18  1  0  0  0  0
 17 19  1  0  0  0  0
 17 20  1  0  0  0  0
 20 21  1  0  0  0  0
 20 22  1  0  0  0  0
 20 23  1  0  0  0  0
 23 24  1  0  0  0  0
 23 25  1  0  0  0  0
 23 26  1  0  0  0  0
 26 27  1  0  0  0  0
 26 28  1  0  0  0  0
 26 29  1  0  0  0  0
 29 30  1  0  0  0  0
 29 31  1  0  0  0  0
 29 32  1  0  0  0  0
 32 33  1  0  0  0  0
 32 34  1  0  0  0  0
 32 35  1  0  0  0  0
 35 36  1  0  0  0  0
 35 37  1  0  0  0  0
 35 38  1  0  0  0  0
 38 39  1  0  0  0  0
 38 40  1  0  0  0  0
 38 41  1  0  0  0  0
 41 42  1  0  0  0  0
 41 43  1  0  0  0  0
 41 44  1  0  0  0  0
 44 45  1  0  0  0  0
 44 46  1  0  0  0  0
 44 47  1  0  0  0  0
 47 48  1  0  0  0  0
 47 49  1  0  0  0  0
 47 50  1  0  0  0  0
 50 51  1  0  0  0  0
 50 52  1  0  0  0  0
 50 53  1  0  0  0  0
 53 54  2  0  0  0  0
 53 55  1  0  0  0  0
M  CHG  1  55  -1
M  END
>  <rseq>
1

>  <mseq>
3

>  <S>
-6.6846991

>  <rmsd_refine>
0.95063955

>  <E_conf>
-80.761497

>  <E_place>
-73.424042

>  <E_score1>
4.066011

>  <E_refine>
-28.379457

>  <E_score2>
-6.6846991

$$$$
Stearic acid
  MOE2015           3D

 55 54  0  0  0  0  0  0  0  0999 V2000
    4.0490   31.7520  -15.9170 C   0  0  0  0  0  0  0  0  0  0  0  0
    3.4820   32.1250  -16.7680 H   0  0  0  0  0  0  0  0  0  0  0  0
    5.1130   31.7590  -16.1580 H   0  0  0  0  0  0  0  0  0  0  0  0
    3.8680   32.4060  -15.0670 H   0  0  0  0  0  0  0  0  0  0  0  0
    3.5850   30.3270  -15.5980 C   0  0  0  0  0  0  0  0  0  0  0  0
    3.9750   29.6420  -16.3520 H   0  0  0  0  0  0  0  0  0  0  0  0
    2.4960   30.3030  -15.6460 H   0  0  0  0  0  0  0  0  0  0  0  0
    4.0080   29.8560  -14.1990 C   0  0  0  0  0  0  0  0  0  0  0  0
    3.5780   28.8680  -14.0270 H   0  0  0  0  0  0  0  0  0  0  0  0
    3.5870   30.5360  -13.4600 H   0  0  0  0  0  0  0  0  0  0  0  0
    5.5290   29.7700  -14.0050 C   0  0  0  0  0  0  0  0  0  0  0  0
    5.9900   30.7360  -14.2160 H   0  0  0  0  0  0  0  0  0  0  0  0
    5.9330   29.0240  -14.6900 H   0  0  0  0  0  0  0  0  0  0  0  0
    5.8590   29.3720  -12.5610 C   0  0  0  0  0  0  0  0  0  0  0  0
    5.3450   28.4410  -12.3150 H   0  0  0  0  0  0  0  0  0  0  0  0
    5.5130   30.1510  -11.8850 H   0  0  0  0  0  0  0  0  0  0  0  0
    7.3670   29.1680  -12.3810 C   0  0  0  0  0  0  0  0  0  0  0  0
    7.9080   30.0410  -12.7500 H   0  0  0  0  0  0  0  0  0  0  0  0
    7.6580   28.2960  -12.9690 H   0  0  0  0  0  0  0  0  0  0  0  0
    7.7260   28.9410  -10.9050 C   0  0  0  0  0  0  0  0  0  0  0  0
    7.0060   28.2530  -10.4640 H   0  0  0  0  0  0  0  0  0  0  0  0
    7.6770   29.8880  -10.3650 H   0  0  0  0  0  0  0  0  0  0  0  0
    9.1310   28.3400  -10.7780 C   0  0  0  0  0  0  0  0  0  0  0  0
    9.8730   29.0630  -11.1160 H   0  0  0  0  0  0  0  0  0  0  0  0
    9.1980   27.4680  -11.4270 H   0  0  0  0  0  0  0  0  0  0  0  0
    9.4470   27.9110   -9.3390 C   0  0  0  0  0  0  0  0  0  0  0  0
    8.6040   27.3500   -8.9320 H   0  0  0  0  0  0  0  0  0  0  0  0
    9.6190   28.7920   -8.7210 H   0  0  0  0  0  0  0  0  0  0  0  0
   10.6820   27.0020   -9.3460 C   0  0  0  0  0  0  0  0  0  0  0  0
   11.5170   27.5150   -9.8240 H   0  0  0  0  0  0  0  0  0  0  0  0
   10.4470   26.1230   -9.9440 H   0  0  0  0  0  0  0  0  0  0  0  0
   11.1040   26.5150   -7.9540 C   0  0  0  0  0  0  0  0  0  0  0  0
   11.7250   25.6280   -8.0890 H   0  0  0  0  0  0  0  0  0  0  0  0
   10.2260   26.2250   -7.3760 H   0  0  0  0  0  0  0  0  0  0  0  0
   11.9210   27.5620   -7.1860 C   0  0  0  0  0  0  0  0  0  0  0  0
   11.2800   28.3900   -6.8830 H   0  0  0  0  0  0  0  0  0  0  0  0
   12.7120   27.9380   -7.8360 H   0  0  0  0  0  0  0  0  0  0  0  0
   12.5660   26.9210   -5.9510 C   0  0  0  0  0  0  0  0  0  0  0  0
   13.1030   26.0230   -6.2650 H   0  0  0  0  0  0  0  0  0  0  0  0
   11.7940   26.6340   -5.2350 H   0  0  0  0  0  0  0  0  0  0  0  0
   13.5640   27.8750   -5.2850 C   0  0  0  0  0  0  0  0  0  0  0  0
   13.0370   28.7280   -4.8550 H   0  0  0  0  0  0  0  0  0  0  0  0
   14.2680   28.2340   -6.0380 H   0  0  0  0  0  0  0  0  0  0  0  0
   14.3450   27.1350   -4.1900 C   0  0  0  0  0  0  0  0  0  0  0  0
   14.7570   26.2200   -4.6180 H   0  0  0  0  0  0  0  0  0  0  0  0
   13.6730   26.8710   -3.3730 H   0  0  0  0  0  0  0  0  0  0  0  0
   15.4960   27.9980   -3.6550 C   0  0  0  0  0  0  0  0  0  0  0  0
   15.0830   28.8980   -3.1970 H   0  0  0  0  0  0  0  0  0  0  0  0
   16.1250   28.2980   -4.4900 H   0  0  0  0  0  0  0  0  0  0  0  0
   16.3630   27.2670   -2.6160 C   0  0  0  0  0  0  0  0  0  0  0  0
   15.7420   26.9910   -1.7630 H   0  0  0  0  0  0  0  0  0  0  0  0
   17.1340   27.9510   -2.2610 H   0  0  0  0  0  0  0  0  0  0  0  0
   17.0440   26.0090   -3.1600 C   0  0  0  0  0  0  0  0  0  0  0  0
   16.4260   24.9310   -3.0270 O   0  0  0  0  0  0  0  0  0  0  0  0
   18.1740   26.1350   -3.6820 O   0  5  0  0  0  0  0  0  0  0  0  0
  1  2  1  0  0  0  0
  1  3  1  0  0  0  0
  1  4  1  0  0  0  0
  1  5  1  0  0  0  0
  5  6  1  0  0  0  0
  5  7  1  0  0  0  0
  5  8  1  0  0  0  0
  8  9  1  0  0  0  0
  8 10  1  0  0  0  0
  8 11  1  0  0  0  0
 11 12  1  0  0  0  0
 11 13  1  0  0  0  0
 11 14  1  0  0  0  0
 14 15  1  0  0  0  0
 14 16  1  0  0  0  0
 14 17  1  0  0  0  0
 17 18  1  0  0  0  0
 17 19  1  0  0  0  0
 17 20  1  0  0  0  0
 20 21  1  0  0  0  0
 20 22  1  0  0  0  0
 20 23  1  0  0  0  0
 23 24  1  0  0  0  0
 23 25  1  0  0  0  0
 23 26  1  0  0  0  0
 26 27  1  0  0  0  0
 26 28  1  0  0  0  0
 26 29  1  0  0  0  0
 29 30  1  0  0  0  0
 29 31  1  0  0  0  0
 29 32  1  0  0  0  0
 32 33  1  0  0  0  0
 32 34  1  0  0  0  0
 32 35  1  0  0  0  0
 35 36  1  0  0  0  0
 35 37  1  0  0  0  0
 35 38  1  0  0  0  0
 38 39  1  0  0  0  0
 38 40  1  0  0  0  0
 38 41  1  0  0  0  0
 41 42  1  0  0  0  0
 41 43  1  0  0  0  0
 41 44  1  0  0  0  0
 44 45  1  0  0  0  0
 44 46  1  0  0  0  0
 44 47  1  0  0  0  0
 47 48  1  0  0  0  0
 47 49  1  0  0  0  0
 47 50  1  0  0  0  0
 50 51  1  0  0  0  0
 50 52  1  0  0  0  0
 50 53  1  0  0  0  0
 53 54  2  0  0  0  0
 53 55  1  0  0  0  0
M  CHG  1  55  -1
M  END
>  <rseq>
1

>  <mseq>
3

>  <S>
-6.4670639

>  <rmsd_refine>
1.8576384

>  <E_conf>
-80.670944

>  <E_place>
-66.665573

>  <E_score1>
-1.7684976

>  <E_refine>
-32.940304

>  <E_score2>
-6.4670639

$$$$
Stearic acid
  MOE2015           3D

 55 54  0  0  0  0  0  0  0  0999 V2000
   15.9880   28.9900   -7.1360 C   0  0  0  0  0  0  0  0  0  0  0  0
   16.5990   29.8140   -6.7760 H   0  0  0  0  0  0  0  0  0  0  0  0
   15.5300   29.2720   -8.0850 H   0  0  0  0  0  0  0  0  0  0  0  0
   16.6180   28.1140   -7.2810 H   0  0  0  0  0  0  0  0  0  0  0  0
   14.9070   28.6780   -6.1010 C   0  0  0  0  0  0  0  0  0  0  0  0
   14.2740   29.5570   -5.9640 H   0  0  0  0  0  0  0  0  0  0  0  0
   15.3770   28.4230   -5.1500 H   0  0  0  0  0  0  0  0  0  0  0  0
   14.0610   27.5000   -6.5930 C   0  0  0  0  0  0  0  0  0  0  0  0
   14.6990   26.6230   -6.7120 H   0  0  0  0  0  0  0  0  0  0  0  0
   13.6420   27.7700   -7.5620 H   0  0  0  0  0  0  0  0  0  0  0  0
   12.9260   27.1670   -5.6160 C   0  0  0  0  0  0  0  0  0  0  0  0
   12.2740   28.0340   -5.5200 H   0  0  0  0  0  0  0  0  0  0  0  0
   13.3520   26.9620   -4.6330 H   0  0  0  0  0  0  0  0  0  0  0  0
   12.1030   25.9380   -6.0510 C   0  0  0  0  0  0  0  0  0  0  0  0
   11.2770   25.8070   -5.3510 H   0  0  0  0  0  0  0  0  0  0  0  0
   12.7420   25.0570   -5.9750 H   0  0  0  0  0  0  0  0  0  0  0  0
   11.5400   25.9900   -7.4820 C   0  0  0  0  0  0  0  0  0  0  0  0
   11.0280   25.0480   -7.6860 H   0  0  0  0  0  0  0  0  0  0  0  0
   12.3650   26.0660   -8.1890 H   0  0  0  0  0  0  0  0  0  0  0  0
   10.5500   27.1430   -7.7130 C   0  0  0  0  0  0  0  0  0  0  0  0
   10.9680   28.0820   -7.3540 H   0  0  0  0  0  0  0  0  0  0  0  0
    9.6290   26.9330   -7.1690 H   0  0  0  0  0  0  0  0  0  0  0  0
   10.2510   27.2950   -9.2080 C   0  0  0  0  0  0  0  0  0  0  0  0
    9.9630   26.3280   -9.6200 H   0  0  0  0  0  0  0  0  0  0  0  0
   11.1520   27.6370   -9.7200 H   0  0  0  0  0  0  0  0  0  0  0  0
    9.1130   28.2970   -9.4420 C   0  0  0  0  0  0  0  0  0  0  0  0
    9.3380   29.2460   -8.9560 H   0  0  0  0  0  0  0  0  0  0  0  0
    8.1970   27.8880   -9.0130 H   0  0  0  0  0  0  0  0  0  0  0  0
    8.9140   28.5280  -10.9440 C   0  0  0  0  0  0  0  0  0  0  0  0
    8.8400   27.5670  -11.4440 H   0  0  0  0  0  0  0  0  0  0  0  0
    9.7860   29.0430  -11.3470 H   0  0  0  0  0  0  0  0  0  0  0  0
    7.6600   29.3620  -11.2390 C   0  0  0  0  0  0  0  0  0  0  0  0
    7.9210   30.4200  -11.1790 H   0  0  0  0  0  0  0  0  0  0  0  0
    6.8920   29.1540  -10.4920 H   0  0  0  0  0  0  0  0  0  0  0  0
    7.0720   29.0390  -12.6230 C   0  0  0  0  0  0  0  0  0  0  0  0
    6.6240   28.0450  -12.6050 H   0  0  0  0  0  0  0  0  0  0  0  0
    7.8470   29.0670  -13.3840 H   0  0  0  0  0  0  0  0  0  0  0  0
    6.0160   30.0780  -12.9890 C   0  0  0  0  0  0  0  0  0  0  0  0
    6.5410   31.0140  -13.1700 H   0  0  0  0  0  0  0  0  0  0  0  0
    5.3140   30.1860  -12.1620 H   0  0  0  0  0  0  0  0  0  0  0  0
    5.2340   29.7230  -14.2530 C   0  0  0  0  0  0  0  0  0  0  0  0
    4.7230   28.7730  -14.0970 H   0  0  0  0  0  0  0  0  0  0  0  0
    5.9260   29.6280  -15.0850 H   0  0  0  0  0  0  0  0  0  0  0  0
    4.2090   30.8240  -14.5690 C   0  0  0  0  0  0  0  0  0  0  0  0
    4.7030   31.7940  -14.4980 H   0  0  0  0  0  0  0  0  0  0  0  0
    3.4100   30.7900  -13.8280 H   0  0  0  0  0  0  0  0  0  0  0  0
    3.5950   30.7230  -15.9710 C   0  0  0  0  0  0  0  0  0  0  0  0
    4.3950   30.7380  -16.7110 H   0  0  0  0  0  0  0  0  0  0  0  0
    2.9850   31.6130  -16.1280 H   0  0  0  0  0  0  0  0  0  0  0  0
    2.6960   29.4920  -16.1950 C   0  0  0  0  0  0  0  0  0  0  0  0
    2.1160   29.6540  -17.1020 H   0  0  0  0  0  0  0  0  0  0  0  0
    1.9930   29.4090  -15.3660 H   0  0  0  0  0  0  0  0  0  0  0  0
    3.4500   28.1690  -16.3560 C   0  0  0  0  0  0  0  0  0  0  0  0
    4.3730   28.1270  -17.1990 O   0  0  0  0  0  0  0  0  0  0  0  0
    3.0790   27.2150  -15.6380 O   0  5  0  0  0  0  0  0  0  0  0  0
  1  2  1  0  0  0  0
  1  3  1  0  0  0  0
  1  4  1  0  0  0  0
  1  5  1  0  0  0  0
  5  6  1  0  0  0  0
  5  7  1  0  0  0  0
  5  8  1  0  0  0  0
  8  9  1  0  0  0  0
  8 10  1  0  0  0  0
  8 11  1  0  0  0  0
 11 12  1  0  0  0  0
 11 13  1  0  0  0  0
 11 14  1  0  0  0  0
 14 15  1  0  0  0  0
 14 16  1  0  0  0  0
 14 17  1  0  0  0  0
 17 18  1  0  0  0  0
 17 19  1  0  0  0  0
 17 20  1  0  0  0  0
 20 21  1  0  0  0  0
 20 22  1  0  0  0  0
 20 23  1  0  0  0  0
 23 24  1  0  0  0  0
 23 25  1  0  0  0  0
 23 26  1  0  0  0  0
 26 27  1  0  0  0  0
 26 28  1  0  0  0  0
 26 29  1  0  0  0  0
 29 30  1  0  0  0  0
 29 31  1  0  0  0  0
 29 32  1  0  0  0  0
 32 33  1  0  0  0  0
 32 34  1  0  0  0  0
 32 35  1  0  0  0  0
 35 36  1  0  0  0  0
 35 37  1  0  0  0  0
 35 38  1  0  0  0  0
 38 39  1  0  0  0  0
 38 40  1  0  0  0  0
 38 41  1  0  0  0  0
 41 42  1  0  0  0  0
 41 43  1  0  0  0  0
 41 44  1  0  0  0  0
 44 45  1  0  0  0  0
 44 46  1  0  0  0  0
 44 47  1  0  0  0  0
 47 48  1  0  0  0  0
 47 49  1  0  0  0  0
 47 50  1  0  0  0  0
 50 51  1  0  0  0  0
 50 52  1  0  0  0  0
 50 53  1  0  0  0  0
 53 54  2  0  0  0  0
 53 55  1  0  0  0  0
M  CHG  1  55  -1
M  END
>  <rseq>
1

>  <mseq>
3

>  <S>
-6.4504747

>  <rmsd_refine>
0.79005402

>  <E_conf>
-79.385895

>  <E_place>
-76.104218

>  <E_score1>
2.324054

>  <E_refine>
-28.334719

>  <E_score2>
-6.4504747

$$$$
Stearic acid
  MOE2015           3D

 55 54  0  0  0  0  0  0  0  0999 V2000
   -0.4420   32.2200  -17.8670 C   0  0  0  0  0  0  0  0  0  0  0  0
   -0.8490   33.2290  -17.9340 H   0  0  0  0  0  0  0  0  0  0  0  0
   -1.2590   31.5210  -17.6810 H   0  0  0  0  0  0  0  0  0  0  0  0
    0.0400   31.9690  -18.8120 H   0  0  0  0  0  0  0  0  0  0  0  0
    0.5740   32.1500  -16.7230 C   0  0  0  0  0  0  0  0  0  0  0  0
    0.0790   32.4170  -15.7880 H   0  0  0  0  0  0  0  0  0  0  0  0
    1.3750   32.8630  -16.9150 H   0  0  0  0  0  0  0  0  0  0  0  0
    1.1620   30.7380  -16.6050 C   0  0  0  0  0  0  0  0  0  0  0  0
    1.5960   30.4580  -17.5620 H   0  0  0  0  0  0  0  0  0  0  0  0
    0.3670   30.0320  -16.3630 H   0  0  0  0  0  0  0  0  0  0  0  0
    2.2510   30.6660  -15.5280 C   0  0  0  0  0  0  0  0  0  0  0  0
    1.8000   30.8140  -14.5460 H   0  0  0  0  0  0  0  0  0  0  0  0
    2.9820   31.4550  -15.7100 H   0  0  0  0  0  0  0  0  0  0  0  0
    2.9490   29.2980  -15.5660 C   0  0  0  0  0  0  0  0  0  0  0  0
    3.4000   29.1550  -16.5500 H   0  0  0  0  0  0  0  0  0  0  0  0
    2.2010   28.5160  -15.4210 H   0  0  0  0  0  0  0  0  0  0  0  0
    4.0390   29.1260  -14.4970 C   0  0  0  0  0  0  0  0  0  0  0  0
    4.4720   28.1330  -14.6250 H   0  0  0  0  0  0  0  0  0  0  0  0
    3.5860   29.1760  -13.5060 H   0  0  0  0  0  0  0  0  0  0  0  0
    5.1540   30.1810  -14.5990 C   0  0  0  0  0  0  0  0  0  0  0  0
    4.8240   31.1110  -14.1330 H   0  0  0  0  0  0  0  0  0  0  0  0
    5.3580   30.3810  -15.6520 H   0  0  0  0  0  0  0  0  0  0  0  0
    6.4680   29.7230  -13.9540 C   0  0  0  0  0  0  0  0  0  0  0  0
    7.2210   30.4850  -14.1550 H   0  0  0  0  0  0  0  0  0  0  0  0
    6.7860   28.7990  -14.4370 H   0  0  0  0  0  0  0  0  0  0  0  0
    6.4070   29.4770  -12.4400 C   0  0  0  0  0  0  0  0  0  0  0  0
    5.6710   28.7060  -12.2100 H   0  0  0  0  0  0  0  0  0  0  0  0
    6.1430   30.3970  -11.9260 H   0  0  0  0  0  0  0  0  0  0  0  0
    7.7920   29.0130  -11.9820 C   0  0  0  0  0  0  0  0  0  0  0  0
    8.5330   29.7500  -12.2950 H   0  0  0  0  0  0  0  0  0  0  0  0
    8.0060   28.0610  -12.4700 H   0  0  0  0  0  0  0  0  0  0  0  0
    7.9160   28.8310  -10.4690 C   0  0  0  0  0  0  0  0  0  0  0  0
    7.1100   28.1970  -10.1030 H   0  0  0  0  0  0  0  0  0  0  0  0
    7.8540   29.8060   -9.9820 H   0  0  0  0  0  0  0  0  0  0  0  0
    9.2710   28.1760  -10.1620 C   0  0  0  0  0  0  0  0  0  0  0  0
   10.0720   28.7920  -10.5710 H   0  0  0  0  0  0  0  0  0  0  0  0
    9.3210   27.1950  -10.6340 H   0  0  0  0  0  0  0  0  0  0  0  0
    9.4760   28.0170   -8.6560 C   0  0  0  0  0  0  0  0  0  0  0  0
    8.6660   27.4170   -8.2360 H   0  0  0  0  0  0  0  0  0  0  0  0
    9.4560   29.0050   -8.1960 H   0  0  0  0  0  0  0  0  0  0  0  0
   10.8160   27.3280   -8.3640 C   0  0  0  0  0  0  0  0  0  0  0  0
   11.6140   27.7980   -8.9380 H   0  0  0  0  0  0  0  0  0  0  0  0
   10.7510   26.2780   -8.6530 H   0  0  0  0  0  0  0  0  0  0  0  0
   11.1350   27.4470   -6.8700 C   0  0  0  0  0  0  0  0  0  0  0  0
   10.3680   26.9180   -6.3010 H   0  0  0  0  0  0  0  0  0  0  0  0
   11.1100   28.5010   -6.5950 H   0  0  0  0  0  0  0  0  0  0  0  0
   12.5120   26.9040   -6.4720 C   0  0  0  0  0  0  0  0  0  0  0  0
   12.6310   27.0440   -5.3960 H   0  0  0  0  0  0  0  0  0  0  0  0
   13.2920   27.4770   -6.9760 H   0  0  0  0  0  0  0  0  0  0  0  0
   12.6920   25.4160   -6.7970 C   0  0  0  0  0  0  0  0  0  0  0  0
   12.8720   25.2960   -7.8640 H   0  0  0  0  0  0  0  0  0  0  0  0
   11.7850   24.8720   -6.5310 H   0  0  0  0  0  0  0  0  0  0  0  0
   13.8650   24.8080   -6.0350 C   0  0  0  0  0  0  0  0  0  0  0  0
   14.9870   25.3410   -6.1750 O   0  0  0  0  0  0  0  0  0  0  0  0
   13.6140   23.8220   -5.3090 O   0  5  0  0  0  0  0  0  0  0  0  0
  1  2  1  0  0  0  0
  1  3  1  0  0  0  0
  1  4  1  0  0  0  0
  1  5  1  0  0  0  0
  5  6  1  0  0  0  0
  5  7  1  0  0  0  0
  5  8  1  0  0  0  0
  8  9  1  0  0  0  0
  8 10  1  0  0  0  0
  8 11  1  0  0  0  0
 11 12  1  0  0  0  0
 11 13  1  0  0  0  0
 11 14  1  0  0  0  0
 14 15  1  0  0  0  0
 14 16  1  0  0  0  0
 14 17  1  0  0  0  0
 17 18  1  0  0  0  0
 17 19  1  0  0  0  0
 17 20  1  0  0  0  0
 20 21  1  0  0  0  0
 20 22  1  0  0  0  0
 20 23  1  0  0  0  0
 23 24  1  0  0  0  0
 23 25  1  0  0  0  0
 23 26  1  0  0  0  0
 26 27  1  0  0  0  0
 26 28  1  0  0  0  0
 26 29  1  0  0  0  0
 29 30  1  0  0  0  0
 29 31  1  0  0  0  0
 29 32  1  0  0  0  0
 32 33  1  0  0  0  0
 32 34  1  0  0  0  0
 32 35  1  0  0  0  0
 35 36  1  0  0  0  0
 35 37  1  0  0  0  0
 35 38  1  0  0  0  0
 38 39  1  0  0  0  0
 38 40  1  0  0  0  0
 38 41  1  0  0  0  0
 41 42  1  0  0  0  0
 41 43  1  0  0  0  0
 41 44  1  0  0  0  0
 44 45  1  0  0  0  0
 44 46  1  0  0  0  0
 44 47  1  0  0  0  0
 47 48  1  0  0  0  0
 47 49  1  0  0  0  0
 47 50  1  0  0  0  0
 50 51  1  0  0  0  0
 50 52  1  0  0  0  0
 50 53  1  0  0  0  0
 53 54  2  0  0  0  0
 53 55  1  0  0  0  0
M  CHG  1  55  -1
M  END
>  <rseq>
1

>  <mseq>
3

>  <S>
-6.4475465

>  <rmsd_refine>
1.2039429

>  <E_conf>
-81.610229

>  <E_place>
-65.15432

>  <E_score1>
2.3220408

>  <E_refine>
-30.122355

>  <E_score2>
-6.4475465

$$$$
Stearic acid
  MOE2015           3D

 55 54  0  0  0  0  0  0  0  0999 V2000
   -1.0490   32.5740  -17.8900 C   0  0  0  0  0  0  0  0  0  0  0  0
   -1.8630   32.3560  -18.5810 H   0  0  0  0  0  0  0  0  0  0  0  0
   -0.3680   33.2860  -18.3560 H   0  0  0  0  0  0  0  0  0  0  0  0
   -1.4650   33.0060  -16.9790 H   0  0  0  0  0  0  0  0  0  0  0  0
   -0.3050   31.2820  -17.5530 C   0  0  0  0  0  0  0  0  0  0  0  0
    0.0510   30.8370  -18.4810 H   0  0  0  0  0  0  0  0  0  0  0  0
   -1.0020   30.5910  -17.0770 H   0  0  0  0  0  0  0  0  0  0  0  0
    0.8870   31.5350  -16.6180 C   0  0  0  0  0  0  0  0  0  0  0  0
    0.5310   32.0400  -15.7200 H   0  0  0  0  0  0  0  0  0  0  0  0
    1.6100   32.1760  -17.1210 H   0  0  0  0  0  0  0  0  0  0  0  0
    1.5420   30.2020  -16.2180 C   0  0  0  0  0  0  0  0  0  0  0  0
    1.8470   29.6610  -17.1130 H   0  0  0  0  0  0  0  0  0  0  0  0
    0.7950   29.5990  -15.7000 H   0  0  0  0  0  0  0  0  0  0  0  0
    2.7550   30.3510  -15.2860 C   0  0  0  0  0  0  0  0  0  0  0  0
    2.9620   29.3680  -14.8620 H   0  0  0  0  0  0  0  0  0  0  0  0
    2.5080   31.0240  -14.4670 H   0  0  0  0  0  0  0  0  0  0  0  0
    4.0170   30.8470  -16.0130 C   0  0  0  0  0  0  0  0  0  0  0  0
    3.7910   31.7770  -16.5340 H   0  0  0  0  0  0  0  0  0  0  0  0
    4.3010   30.0970  -16.7510 H   0  0  0  0  0  0  0  0  0  0  0  0
    5.2230   31.1060  -15.0960 C   0  0  0  0  0  0  0  0  0  0  0  0
    5.0050   31.9620  -14.4570 H   0  0  0  0  0  0  0  0  0  0  0  0
    6.0780   31.3610  -15.7240 H   0  0  0  0  0  0  0  0  0  0  0  0
    5.5900   29.9030  -14.2110 C   0  0  0  0  0  0  0  0  0  0  0  0
    5.6740   29.0060  -14.8260 H   0  0  0  0  0  0  0  0  0  0  0  0
    4.7970   29.7540  -13.4770 H   0  0  0  0  0  0  0  0  0  0  0  0
    6.9130   30.1310  -13.4700 C   0  0  0  0  0  0  0  0  0  0  0  0
    6.8860   31.0880  -12.9610 H   0  0  0  0  0  0  0  0  0  0  0  0
    7.7330   30.1440  -14.1880 H   0  0  0  0  0  0  0  0  0  0  0  0
    7.1640   29.0270  -12.4390 C   0  0  0  0  0  0  0  0  0  0  0  0
    7.4230   28.1130  -12.9770 H   0  0  0  0  0  0  0  0  0  0  0  0
    6.2540   28.8440  -11.8660 H   0  0  0  0  0  0  0  0  0  0  0  0
    8.2860   29.4010  -11.4560 C   0  0  0  0  0  0  0  0  0  0  0  0
    7.9310   30.1650  -10.7630 H   0  0  0  0  0  0  0  0  0  0  0  0
    9.1470   29.7880  -11.9970 H   0  0  0  0  0  0  0  0  0  0  0  0
    8.6900   28.1410  -10.6870 C   0  0  0  0  0  0  0  0  0  0  0  0
    9.0160   27.4030  -11.4170 H   0  0  0  0  0  0  0  0  0  0  0  0
    7.8220   27.7790  -10.1370 H   0  0  0  0  0  0  0  0  0  0  0  0
    9.8410   28.3170   -9.7080 C   0  0  0  0  0  0  0  0  0  0  0  0
    9.5820   29.0900   -8.9830 H   0  0  0  0  0  0  0  0  0  0  0  0
   10.7210   28.6020  -10.2790 H   0  0  0  0  0  0  0  0  0  0  0  0
   10.1290   26.9990   -8.9750 C   0  0  0  0  0  0  0  0  0  0  0  0
   10.3250   26.2150   -9.7070 H   0  0  0  0  0  0  0  0  0  0  0  0
    9.2590   26.7190   -8.3800 H   0  0  0  0  0  0  0  0  0  0  0  0
   11.3510   27.1350   -8.0590 C   0  0  0  0  0  0  0  0  0  0  0  0
   11.1790   27.9490   -7.3530 H   0  0  0  0  0  0  0  0  0  0  0  0
   12.2280   27.3720   -8.6630 H   0  0  0  0  0  0  0  0  0  0  0  0
   11.6080   25.8340   -7.2830 C   0  0  0  0  0  0  0  0  0  0  0  0
   11.7110   25.0070   -7.9840 H   0  0  0  0  0  0  0  0  0  0  0  0
   10.7600   25.6240   -6.6290 H   0  0  0  0  0  0  0  0  0  0  0  0
   12.8880   25.9160   -6.4380 C   0  0  0  0  0  0  0  0  0  0  0  0
   13.7280   26.2060   -7.0700 H   0  0  0  0  0  0  0  0  0  0  0  0
   13.1010   24.9280   -6.0280 H   0  0  0  0  0  0  0  0  0  0  0  0
   12.7590   26.9020   -5.2790 C   0  0  0  0  0  0  0  0  0  0  0  0
   13.1620   28.0700   -5.4710 O   0  0  0  0  0  0  0  0  0  0  0  0
   12.2400   26.4720   -4.2270 O   0  5  0  0  0  0  0  0  0  0  0  0
  1  2  1  0  0  0  0
  1  3  1  0  0  0  0
  1  4  1  0  0  0  0
  1  5  1  0  0  0  0
  5  6  1  0  0  0  0
  5  7  1  0  0  0  0
  5  8  1  0  0  0  0
  8  9  1  0  0  0  0
  8 10  1  0  0  0  0
  8 11  1  0  0  0  0
 11 12  1  0  0  0  0
 11 13  1  0  0  0  0
 11 14  1  0  0  0  0
 14 15  1  0  0  0  0
 14 16  1  0  0  0  0
 14 17  1  0  0  0  0
 17 18  1  0  0  0  0
 17 19  1  0  0  0  0
 17 20  1  0  0  0  0
 20 21  1  0  0  0  0
 20 22  1  0  0  0  0
 20 23  1  0  0  0  0
 23 24  1  0  0  0  0
 23 25  1  0  0  0  0
 23 26  1  0  0  0  0
 26 27  1  0  0  0  0
 26 28  1  0  0  0  0
 26 29  1  0  0  0  0
 29 30  1  0  0  0  0
 29 31  1  0  0  0  0
 29 32  1  0  0  0  0
 32 33  1  0  0  0  0
 32 34  1  0  0  0  0
 32 35  1  0  0  0  0
 35 36  1  0  0  0  0
 35 37  1  0  0  0  0
 35 38  1  0  0  0  0
 38 39  1  0  0  0  0
 38 40  1  0  0  0  0
 38 41  1  0  0  0  0
 41 42  1  0  0  0  0
 41 43  1  0  0  0  0
 41 44  1  0  0  0  0
 44 45  1  0  0  0  0
 44 46  1  0  0  0  0
 44 47  1  0  0  0  0
 47 48  1  0  0  0  0
 47 49  1  0  0  0  0
 47 50  1  0  0  0  0
 50 51  1  0  0  0  0
 50 52  1  0  0  0  0
 50 53  1  0  0  0  0
 53 54  2  0  0  0  0
 53 55  1  0  0  0  0
M  CHG  1  55  -1
M  END
>  <rseq>
1

>  <mseq>
3

>  <S>
-6.4447145

>  <rmsd_refine>
1.0950372

>  <E_conf>
-81.527695

>  <E_place>
-63.046337

>  <E_score1>
-4.7259932

>  <E_refine>
-27.293701

>  <E_score2>
-6.4447145

$$$$
Stearic acid
  MOE2015           3D

 55 54  0  0  0  0  0  0  0  0999 V2000
   10.8980   19.7820   -7.5120 C   0  0  0  0  0  0  0  0  0  0  0  0
   11.3830   18.9450   -7.0110 H   0  0  0  0  0  0  0  0  0  0  0  0
   11.2670   19.8430   -8.5370 H   0  0  0  0  0  0  0  0  0  0  0  0
    9.8200   19.6180   -7.5210 H   0  0  0  0  0  0  0  0  0  0  0  0
   11.2250   21.0790   -6.7660 C   0  0  0  0  0  0  0  0  0  0  0  0
   12.3060   21.2240   -6.7750 H   0  0  0  0  0  0  0  0  0  0  0  0
   10.8930   20.9940   -5.7300 H   0  0  0  0  0  0  0  0  0  0  0  0
   10.5370   22.2830   -7.4250 C   0  0  0  0  0  0  0  0  0  0  0  0
    9.4560   22.1800   -7.3230 H   0  0  0  0  0  0  0  0  0  0  0  0
   10.7910   22.2990   -8.4860 H   0  0  0  0  0  0  0  0  0  0  0  0
   10.9880   23.6040   -6.7820 C   0  0  0  0  0  0  0  0  0  0  0  0
   12.0750   23.6750   -6.8380 H   0  0  0  0  0  0  0  0  0  0  0  0
   10.6900   23.6230   -5.7320 H   0  0  0  0  0  0  0  0  0  0  0  0
   10.3680   24.8020   -7.5130 C   0  0  0  0  0  0  0  0  0  0  0  0
    9.2910   24.7990   -7.3460 H   0  0  0  0  0  0  0  0  0  0  0  0
   10.5630   24.7020   -8.5810 H   0  0  0  0  0  0  0  0  0  0  0  0
   10.9620   26.1320   -7.0300 C   0  0  0  0  0  0  0  0  0  0  0  0
   12.0500   26.0710   -7.1070 H   0  0  0  0  0  0  0  0  0  0  0  0
   10.7020   26.2940   -5.9830 H   0  0  0  0  0  0  0  0  0  0  0  0
   10.4980   27.3270   -7.8760 C   0  0  0  0  0  0  0  0  0  0  0  0
   10.6540   27.0970   -8.9310 H   0  0  0  0  0  0  0  0  0  0  0  0
   11.1330   28.1740   -7.6210 H   0  0  0  0  0  0  0  0  0  0  0  0
    9.0330   27.7360   -7.6370 C   0  0  0  0  0  0  0  0  0  0  0  0
    8.9290   28.0630   -6.6040 H   0  0  0  0  0  0  0  0  0  0  0  0
    8.3710   26.8830   -7.7870 H   0  0  0  0  0  0  0  0  0  0  0  0
    8.5980   28.8850   -8.5650 C   0  0  0  0  0  0  0  0  0  0  0  0
    9.4150   29.5880   -8.6990 H   0  0  0  0  0  0  0  0  0  0  0  0
    7.7690   29.4210   -8.0990 H   0  0  0  0  0  0  0  0  0  0  0  0
    8.1250   28.3620   -9.9270 C   0  0  0  0  0  0  0  0  0  0  0  0
    7.1510   27.9040   -9.7650 H   0  0  0  0  0  0  0  0  0  0  0  0
    8.8150   27.6050  -10.3010 H   0  0  0  0  0  0  0  0  0  0  0  0
    7.9870   29.4600  -10.9900 C   0  0  0  0  0  0  0  0  0  0  0  0
    8.9710   29.7020  -11.3890 H   0  0  0  0  0  0  0  0  0  0  0  0
    7.5500   30.3530  -10.5390 H   0  0  0  0  0  0  0  0  0  0  0  0
    7.0790   28.9860  -12.1350 C   0  0  0  0  0  0  0  0  0  0  0  0
    6.0920   28.7770  -11.7180 H   0  0  0  0  0  0  0  0  0  0  0  0
    7.4720   28.0660  -12.5680 H   0  0  0  0  0  0  0  0  0  0  0  0
    6.9550   30.0430  -13.2420 C   0  0  0  0  0  0  0  0  0  0  0  0
    7.7880   29.9430  -13.9390 H   0  0  0  0  0  0  0  0  0  0  0  0
    6.9960   31.0330  -12.7970 H   0  0  0  0  0  0  0  0  0  0  0  0
    5.6260   29.8860  -13.9920 C   0  0  0  0  0  0  0  0  0  0  0  0
    4.8090   29.9090  -13.2690 H   0  0  0  0  0  0  0  0  0  0  0  0
    5.6270   28.9190  -14.4940 H   0  0  0  0  0  0  0  0  0  0  0  0
    5.3910   31.0020  -15.0210 C   0  0  0  0  0  0  0  0  0  0  0  0
    6.0770   30.8760  -15.8580 H   0  0  0  0  0  0  0  0  0  0  0  0
    5.6040   31.9620  -14.5530 H   0  0  0  0  0  0  0  0  0  0  0  0
    3.9450   31.0550  -15.5470 C   0  0  0  0  0  0  0  0  0  0  0  0
    3.8830   31.8870  -16.2490 H   0  0  0  0  0  0  0  0  0  0  0  0
    3.2720   31.2800  -14.7190 H   0  0  0  0  0  0  0  0  0  0  0  0
    3.4470   29.7870  -16.2710 C   0  0  0  0  0  0  0  0  0  0  0  0
    4.2070   29.4490  -16.9730 H   0  0  0  0  0  0  0  0  0  0  0  0
    2.5550   30.0490  -16.8400 H   0  0  0  0  0  0  0  0  0  0  0  0
    3.0660   28.6270  -15.3480 C   0  0  0  0  0  0  0  0  0  0  0  0
    3.6230   27.5270  -15.5600 O   0  0  0  0  0  0  0  0  0  0  0  0
    2.2120   28.8490  -14.4620 O   0  5  0  0  0  0  0  0  0  0  0  0
  1  2  1  0  0  0  0
  1  3  1  0  0  0  0
  1  4  1  0  0  0  0
  1  5  1  0  0  0  0
  5  6  1  0  0  0  0
  5  7  1  0  0  0  0
  5  8  1  0  0  0  0
  8  9  1  0  0  0  0
  8 10  1  0  0  0  0
  8 11  1  0  0  0  0
 11 12  1  0  0  0  0
 11 13  1  0  0  0  0
 11 14  1  0  0  0  0
 14 15  1  0  0  0  0
 14 16  1  0  0  0  0
 14 17  1  0  0  0  0
 17 18  1  0  0  0  0
 17 19  1  0  0  0  0
 17 20  1  0  0  0  0
 20 21  1  0  0  0  0
 20 22  1  0  0  0  0
 20 23  1  0  0  0  0
 23 24  1  0  0  0  0
 23 25  1  0  0  0  0
 23 26  1  0  0  0  0
 26 27  1  0  0  0  0
 26 28  1  0  0  0  0
 26 29  1  0  0  0  0
 29 30  1  0  0  0  0
 29 31  1  0  0  0  0
 29 32  1  0  0  0  0
 32 33  1  0  0  0  0
 32 34  1  0  0  0  0
 32 35  1  0  0  0  0
 35 36  1  0  0  0  0
 35 37  1  0  0  0  0
 35 38  1  0  0  0  0
 38 39  1  0  0  0  0
 38 40  1  0  0  0  0
 38 41  1  0  0  0  0
 41 42  1  0  0  0  0
 41 43  1  0  0  0  0
 41 44  1  0  0  0  0
 44 45  1  0  0  0  0
 44 46  1  0  0  0  0
 44 47  1  0  0  0  0
 47 48  1  0  0  0  0
 47 49  1  0  0  0  0
 47 50  1  0  0  0  0
 50 51  1  0  0  0  0
 50 52  1  0  0  0  0
 50 53  1  0  0  0  0
 53 54  2  0  0  0  0
 53 55  1  0  0  0  0
M  CHG  1  55  -1
M  END
>  <rseq>
1

>  <mseq>
3

>  <S>
-6.3960419

>  <rmsd_refine>
2.5355418

>  <E_conf>
-78.385483

>  <E_place>
-59.281834

>  <E_score1>
-3.8650045

>  <E_refine>
-29.448284

>  <E_score2>
-6.3960419

$$$$
Stearic acid
  MOE2015           3D

 55 54  0  0  0  0  0  0  0  0999 V2000
    0.4120   31.7440  -17.0920 C   0  0  0  0  0  0  0  0  0  0  0  0
   -0.6720   31.7730  -16.9830 H   0  0  0  0  0  0  0  0  0  0  0  0
    0.6560   31.2740  -18.0440 H   0  0  0  0  0  0  0  0  0  0  0  0
    0.7970   32.7640  -17.0740 H   0  0  0  0  0  0  0  0  0  0  0  0
    1.0170   30.9340  -15.9420 C   0  0  0  0  0  0  0  0  0  0  0  0
    0.6660   29.9030  -16.0080 H   0  0  0  0  0  0  0  0  0  0  0  0
    0.6650   31.3550  -15.0000 H   0  0  0  0  0  0  0  0  0  0  0  0
    2.5530   30.9550  -15.9760 C   0  0  0  0  0  0  0  0  0  0  0  0
    2.9050   31.9870  -16.0190 H   0  0  0  0  0  0  0  0  0  0  0  0
    2.8960   30.4220  -16.8620 H   0  0  0  0  0  0  0  0  0  0  0  0
    3.1300   30.2770  -14.7260 C   0  0  0  0  0  0  0  0  0  0  0  0
    2.7550   29.2530  -14.6740 H   0  0  0  0  0  0  0  0  0  0  0  0
    2.7900   30.8150  -13.8410 H   0  0  0  0  0  0  0  0  0  0  0  0
    4.6650   30.2480  -14.7420 C   0  0  0  0  0  0  0  0  0  0  0  0
    5.0560   31.2620  -14.8390 H   0  0  0  0  0  0  0  0  0  0  0  0
    5.0000   29.6550  -15.5950 H   0  0  0  0  0  0  0  0  0  0  0  0
    5.1910   29.6230  -13.4410 C   0  0  0  0  0  0  0  0  0  0  0  0
    4.6730   28.6780  -13.2680 H   0  0  0  0  0  0  0  0  0  0  0  0
    4.9740   30.2920  -12.6100 H   0  0  0  0  0  0  0  0  0  0  0  0
    6.7010   29.3430  -13.5030 C   0  0  0  0  0  0  0  0  0  0  0  0
    7.2480   30.2600  -13.7300 H   0  0  0  0  0  0  0  0  0  0  0  0
    6.8800   28.6260  -14.3050 H   0  0  0  0  0  0  0  0  0  0  0  0
    7.2170   28.7290  -12.1920 C   0  0  0  0  0  0  0  0  0  0  0  0
    8.0790   28.1050  -12.4200 H   0  0  0  0  0  0  0  0  0  0  0  0
    6.4430   28.0890  -11.7710 H   0  0  0  0  0  0  0  0  0  0  0  0
    7.6270   29.7790  -11.1500 C   0  0  0  0  0  0  0  0  0  0  0  0
    6.7910   30.4550  -10.9850 H   0  0  0  0  0  0  0  0  0  0  0  0
    8.4590   30.3620  -11.5430 H   0  0  0  0  0  0  0  0  0  0  0  0
    8.0260   29.1780   -9.7900 C   0  0  0  0  0  0  0  0  0  0  0  0
    7.1830   28.6140   -9.3880 H   0  0  0  0  0  0  0  0  0  0  0  0
    8.2330   30.0060   -9.1090 H   0  0  0  0  0  0  0  0  0  0  0  0
    9.2620   28.2640   -9.8430 C   0  0  0  0  0  0  0  0  0  0  0  0
   10.0820   28.7940  -10.3290 H   0  0  0  0  0  0  0  0  0  0  0  0
    9.0390   27.3720  -10.4260 H   0  0  0  0  0  0  0  0  0  0  0  0
    9.6940   27.8400   -8.4310 C   0  0  0  0  0  0  0  0  0  0  0  0
    8.8950   27.2590   -7.9670 H   0  0  0  0  0  0  0  0  0  0  0  0
    9.8710   28.7300   -7.8270 H   0  0  0  0  0  0  0  0  0  0  0  0
   10.9750   26.9930   -8.4730 C   0  0  0  0  0  0  0  0  0  0  0  0
   11.7400   27.5160   -9.0490 H   0  0  0  0  0  0  0  0  0  0  0  0
   10.7540   26.0450   -8.9660 H   0  0  0  0  0  0  0  0  0  0  0  0
   11.5180   26.7230   -7.0600 C   0  0  0  0  0  0  0  0  0  0  0  0
   10.7570   26.2050   -6.4750 H   0  0  0  0  0  0  0  0  0  0  0  0
   11.7500   27.6740   -6.5810 H   0  0  0  0  0  0  0  0  0  0  0  0
   12.7870   25.8560   -7.1210 C   0  0  0  0  0  0  0  0  0  0  0  0
   13.5460   26.3740   -7.7040 H   0  0  0  0  0  0  0  0  0  0  0  0
   12.5420   24.9240   -7.6290 H   0  0  0  0  0  0  0  0  0  0  0  0
   13.3650   25.5050   -5.7390 C   0  0  0  0  0  0  0  0  0  0  0  0
   14.0580   24.6700   -5.8550 H   0  0  0  0  0  0  0  0  0  0  0  0
   12.5510   25.1710   -5.0950 H   0  0  0  0  0  0  0  0  0  0  0  0
   14.1120   26.6590   -5.0430 C   0  0  0  0  0  0  0  0  0  0  0  0
   14.2240   26.4050   -3.9890 H   0  0  0  0  0  0  0  0  0  0  0  0
   13.5280   27.5760   -5.1000 H   0  0  0  0  0  0  0  0  0  0  0  0
   15.5120   26.9060   -5.6110 C   0  0  0  0  0  0  0  0  0  0  0  0
   16.4250   26.1460   -5.2190 O   0  0  0  0  0  0  0  0  0  0  0  0
   15.6580   27.8710   -6.3940 O   0  5  0  0  0  0  0  0  0  0  0  0
  1  2  1  0  0  0  0
  1  3  1  0  0  0  0
  1  4  1  0  0  0  0
  1  5  1  0  0  0  0
  5  6  1  0  0  0  0
  5  7  1  0  0  0  0
  5  8  1  0  0  0  0
  8  9  1  0  0  0  0
  8 10  1  0  0  0  0
  8 11  1  0  0  0  0
 11 12  1  0  0  0  0
 11 13  1  0  0  0  0
 11 14  1  0  0  0  0
 14 15  1  0  0  0  0
 14 16  1  0  0  0  0
 14 17  1  0  0  0  0
 17 18  1  0  0  0  0
 17 19  1  0  0  0  0
 17 20  1  0  0  0  0
 20 21  1  0  0  0  0
 20 22  1  0  0  0  0
 20 23  1  0  0  0  0
 23 24  1  0  0  0  0
 23 25  1  0  0  0  0
 23 26  1  0  0  0  0
 26 27  1  0  0  0  0
 26 28  1  0  0  0  0
 26 29  1  0  0  0  0
 29 30  1  0  0  0  0
 29 31  1  0  0  0  0
 29 32  1  0  0  0  0
 32 33  1  0  0  0  0
 32 34  1  0  0  0  0
 32 35  1  0  0  0  0
 35 36  1  0  0  0  0
 35 37  1  0  0  0  0
 35 38  1  0  0  0  0
 38 39  1  0  0  0  0
 38 40  1  0  0  0  0
 38 41  1  0  0  0  0
 41 42  1  0  0  0  0
 41 43  1  0  0  0  0
 41 44  1  0  0  0  0
 44 45  1  0  0  0  0
 44 46  1  0  0  0  0
 44 47  1  0  0  0  0
 47 48  1  0  0  0  0
 47 49  1  0  0  0  0
 47 50  1  0  0  0  0
 50 51  1  0  0  0  0
 50 52  1  0  0  0  0
 50 53  1  0  0  0  0
 53 54  2  0  0  0  0
 53 55  1  0  0  0  0
M  CHG  1  55  -1
M  END
>  <rseq>
1

>  <mseq>
3

>  <S>
-6.3758459

>  <rmsd_refine>
1.0904975

>  <E_conf>
-81.536606

>  <E_place>
-67.342705

>  <E_score1>
0.30608746

>  <E_refine>
-31.045599

>  <E_score2>
-6.3758459

$$$$
Stearic acid
  MOE2015           3D

 55 54  0  0  0  0  0  0  0  0999 V2000
    2.1440   30.5630  -16.1760 C   0  0  0  0  0  0  0  0  0  0  0  0
    1.1770   30.4700  -15.6790 H   0  0  0  0  0  0  0  0  0  0  0  0
    2.2600   29.7440  -16.8860 H   0  0  0  0  0  0  0  0  0  0  0  0
    2.1780   31.5150  -16.7070 H   0  0  0  0  0  0  0  0  0  0  0  0
    3.2600   30.5090  -15.1290 C   0  0  0  0  0  0  0  0  0  0  0  0
    3.1900   29.5670  -14.5840 H   0  0  0  0  0  0  0  0  0  0  0  0
    3.1270   31.3290  -14.4270 H   0  0  0  0  0  0  0  0  0  0  0  0
    4.6410   30.6250  -15.7870 C   0  0  0  0  0  0  0  0  0  0  0  0
    4.6330   31.4650  -16.4820 H   0  0  0  0  0  0  0  0  0  0  0  0
    4.8430   29.7120  -16.3490 H   0  0  0  0  0  0  0  0  0  0  0  0
    5.7720   30.8640  -14.7780 C   0  0  0  0  0  0  0  0  0  0  0  0
    5.5750   31.7900  -14.2400 H   0  0  0  0  0  0  0  0  0  0  0  0
    6.6960   30.9950  -15.3380 H   0  0  0  0  0  0  0  0  0  0  0  0
    5.9630   29.7160  -13.7730 C   0  0  0  0  0  0  0  0  0  0  0  0
    6.0950   28.7810  -14.3190 H   0  0  0  0  0  0  0  0  0  0  0  0
    5.0810   29.6340  -13.1370 H   0  0  0  0  0  0  0  0  0  0  0  0
    7.1950   29.9610  -12.8890 C   0  0  0  0  0  0  0  0  0  0  0  0
    7.0570   30.8730  -12.3120 H   0  0  0  0  0  0  0  0  0  0  0  0
    8.0690   30.0740  -13.5270 H   0  0  0  0  0  0  0  0  0  0  0  0
    7.4350   28.7930  -11.9300 C   0  0  0  0  0  0  0  0  0  0  0  0
    7.6860   27.9160  -12.5270 H   0  0  0  0  0  0  0  0  0  0  0  0
    6.5230   28.5900  -11.3660 H   0  0  0  0  0  0  0  0  0  0  0  0
    8.5780   29.0840  -10.9440 C   0  0  0  0  0  0  0  0  0  0  0  0
    8.2750   29.8820  -10.2640 H   0  0  0  0  0  0  0  0  0  0  0  0
    9.4610   29.3990  -11.4990 H   0  0  0  0  0  0  0  0  0  0  0  0
    8.9200   27.8230  -10.1420 C   0  0  0  0  0  0  0  0  0  0  0  0
    9.2590   27.0670  -10.8470 H   0  0  0  0  0  0  0  0  0  0  0  0
    8.0280   27.4830   -9.6180 H   0  0  0  0  0  0  0  0  0  0  0  0
   10.0410   28.0050   -9.1260 C   0  0  0  0  0  0  0  0  0  0  0  0
    9.7600   28.7830   -8.4150 H   0  0  0  0  0  0  0  0  0  0  0  0
   10.9370   28.2880   -9.6720 H   0  0  0  0  0  0  0  0  0  0  0  0
   10.3290   26.7000   -8.3730 C   0  0  0  0  0  0  0  0  0  0  0  0
   10.5750   25.9190   -9.0920 H   0  0  0  0  0  0  0  0  0  0  0  0
    9.4370   26.4030   -7.8200 H   0  0  0  0  0  0  0  0  0  0  0  0
   11.5080   26.8850   -7.4020 C   0  0  0  0  0  0  0  0  0  0  0  0
   11.2250   27.5940   -6.6230 H   0  0  0  0  0  0  0  0  0  0  0  0
   12.3530   27.3040   -7.9510 H   0  0  0  0  0  0  0  0  0  0  0  0
   11.9770   25.5740   -6.7500 C   0  0  0  0  0  0  0  0  0  0  0  0
   12.8310   25.7980   -6.1100 H   0  0  0  0  0  0  0  0  0  0  0  0
   12.3130   24.8990   -7.5370 H   0  0  0  0  0  0  0  0  0  0  0  0
   10.8910   24.8810   -5.9070 C   0  0  0  0  0  0  0  0  0  0  0  0
   10.0920   24.5350   -6.5640 H   0  0  0  0  0  0  0  0  0  0  0  0
   10.4700   25.6050   -5.2080 H   0  0  0  0  0  0  0  0  0  0  0  0
   11.4070   23.6770   -5.0990 C   0  0  0  0  0  0  0  0  0  0  0  0
   10.5630   23.2440   -4.5600 H   0  0  0  0  0  0  0  0  0  0  0  0
   12.1420   24.0190   -4.3680 H   0  0  0  0  0  0  0  0  0  0  0  0
   12.0440   22.5950   -5.9820 C   0  0  0  0  0  0  0  0  0  0  0  0
   12.9940   22.9670   -6.3650 H   0  0  0  0  0  0  0  0  0  0  0  0
   11.3820   22.3750   -6.8210 H   0  0  0  0  0  0  0  0  0  0  0  0
   12.3160   21.2930   -5.2170 C   0  0  0  0  0  0  0  0  0  0  0  0
   11.3860   20.9250   -4.7840 H   0  0  0  0  0  0  0  0  0  0  0  0
   13.0240   21.4860   -4.4100 H   0  0  0  0  0  0  0  0  0  0  0  0
   12.8870   20.2170   -6.1390 C   0  0  0  0  0  0  0  0  0  0  0  0
   12.0680   19.4840   -6.7360 O   0  0  0  0  0  0  0  0  0  0  0  0
   14.1320   20.1480   -6.2290 O   0  5  0  0  0  0  0  0  0  0  0  0
  1  2  1  0  0  0  0
  1  3  1  0  0  0  0
  1  4  1  0  0  0  0
  1  5  1  0  0  0  0
  5  6  1  0  0  0  0
  5  7  1  0  0  0  0
  5  8  1  0  0  0  0
  8  9  1  0  0  0  0
  8 10  1  0  0  0  0
  8 11  1  0  0  0  0
 11 12  1  0  0  0  0
 11 13  1  0  0  0  0
 11 14  1  0  0  0  0
 14 15  1  0  0  0  0
 14 16  1  0  0  0  0
 14 17  1  0  0  0  0
 17 18  1  0  0  0  0
 17 19  1  0  0  0  0
 17 20  1  0  0  0  0
 20 21  1  0  0  0  0
 20 22  1  0  0  0  0
 20 23  1  0  0  0  0
 23 24  1  0  0  0  0
 23 25  1  0  0  0  0
 23 26  1  0  0  0  0
 26 27  1  0  0  0  0
 26 28  1  0  0  0  0
 26 29  1  0  0  0  0
 29 30  1  0  0  0  0
 29 31  1  0  0  0  0
 29 32  1  0  0  0  0
 32 33  1  0  0  0  0
 32 34  1  0  0  0  0
 32 35  1  0  0  0  0
 35 36  1  0  0  0  0
 35 37  1  0  0  0  0
 35 38  1  0  0  0  0
 38 39  1  0  0  0  0
 38 40  1  0  0  0  0
 38 41  1  0  0  0  0
 41 42  1  0  0  0  0
 41 43  1  0  0  0  0
 41 44  1  0  0  0  0
 44 45  1  0  0  0  0
 44 46  1  0  0  0  0
 44 47  1  0  0  0  0
 47 48  1  0  0  0  0
 47 49  1  0  0  0  0
 47 50  1  0  0  0  0
 50 51  1  0  0  0  0
 50 52  1  0  0  0  0
 50 53  1  0  0  0  0
 53 54  2  0  0  0  0
 53 55  1  0  0  0  0
M  CHG  1  55  -1
M  END
>  <rseq>
1

>  <mseq>
3

>  <S>
-6.2700171

>  <rmsd_refine>
2.2097919

>  <E_conf>
-83.123703

>  <E_place>
-62.777283

>  <E_score1>
1.8900456

>  <E_refine>
-27.126595

>  <E_score2>
-6.2700171

$$$$
Stearic acid
  MOE2015           3D

 55 54  0  0  0  0  0  0  0  0999 V2000
   15.3250   26.2970   -5.9700 C   0  0  0  0  0  0  0  0  0  0  0  0
   16.2240   26.8820   -5.7740 H   0  0  0  0  0  0  0  0  0  0  0  0
   15.5400   25.5690   -6.7520 H   0  0  0  0  0  0  0  0  0  0  0  0
   15.0350   25.7720   -5.0590 H   0  0  0  0  0  0  0  0  0  0  0  0
   14.1960   27.2290   -6.4210 C   0  0  0  0  0  0  0  0  0  0  0  0
   14.5130   27.7670   -7.3140 H   0  0  0  0  0  0  0  0  0  0  0  0
   13.9950   27.9550   -5.6310 H   0  0  0  0  0  0  0  0  0  0  0  0
   12.9160   26.4360   -6.7230 C   0  0  0  0  0  0  0  0  0  0  0  0
   12.5690   25.9630   -5.8030 H   0  0  0  0  0  0  0  0  0  0  0  0
   13.1350   25.6580   -7.4570 H   0  0  0  0  0  0  0  0  0  0  0  0
   11.8170   27.3530   -7.2770 C   0  0  0  0  0  0  0  0  0  0  0  0
   12.1340   27.7240   -8.2520 H   0  0  0  0  0  0  0  0  0  0  0  0
   11.6780   28.1990   -6.6030 H   0  0  0  0  0  0  0  0  0  0  0  0
   10.4880   26.5940   -7.4160 C   0  0  0  0  0  0  0  0  0  0  0  0
   10.2110   26.2010   -6.4360 H   0  0  0  0  0  0  0  0  0  0  0  0
   10.6180   25.7480   -8.0940 H   0  0  0  0  0  0  0  0  0  0  0  0
    9.3330   27.4760   -7.9180 C   0  0  0  0  0  0  0  0  0  0  0  0
    9.2880   28.3900   -7.3250 H   0  0  0  0  0  0  0  0  0  0  0  0
    8.4010   26.9280   -7.7710 H   0  0  0  0  0  0  0  0  0  0  0  0
    9.4540   27.8330   -9.4060 C   0  0  0  0  0  0  0  0  0  0  0  0
    9.5020   26.9100   -9.9840 H   0  0  0  0  0  0  0  0  0  0  0  0
   10.3680   28.3960   -9.5850 H   0  0  0  0  0  0  0  0  0  0  0  0
    8.2520   28.6660   -9.8780 C   0  0  0  0  0  0  0  0  0  0  0  0
    8.2470   29.6300   -9.3670 H   0  0  0  0  0  0  0  0  0  0  0  0
    7.3300   28.1340   -9.6410 H   0  0  0  0  0  0  0  0  0  0  0  0
    8.3310   28.8870  -11.3940 C   0  0  0  0  0  0  0  0  0  0  0  0
    8.4430   27.9190  -11.8810 H   0  0  0  0  0  0  0  0  0  0  0  0
    9.2100   29.4910  -11.6200 H   0  0  0  0  0  0  0  0  0  0  0  0
    7.0850   29.5800  -11.9620 C   0  0  0  0  0  0  0  0  0  0  0  0
    7.0510   30.6070  -11.5980 H   0  0  0  0  0  0  0  0  0  0  0  0
    6.1940   29.0480  -11.6260 H   0  0  0  0  0  0  0  0  0  0  0  0
    7.1370   29.5720  -13.4990 C   0  0  0  0  0  0  0  0  0  0  0  0
    7.1310   28.5400  -13.8520 H   0  0  0  0  0  0  0  0  0  0  0  0
    8.0730   30.0260  -13.8180 H   0  0  0  0  0  0  0  0  0  0  0  0
    5.9910   30.3360  -14.1780 C   0  0  0  0  0  0  0  0  0  0  0  0
    6.1860   30.3610  -15.2490 H   0  0  0  0  0  0  0  0  0  0  0  0
    5.9840   31.3670  -13.8360 H   0  0  0  0  0  0  0  0  0  0  0  0
    4.6130   29.6980  -13.9490 C   0  0  0  0  0  0  0  0  0  0  0  0
    4.3420   29.7620  -12.8940 H   0  0  0  0  0  0  0  0  0  0  0  0
    4.6510   28.6490  -14.2460 H   0  0  0  0  0  0  0  0  0  0  0  0
    3.5530   30.4230  -14.7880 C   0  0  0  0  0  0  0  0  0  0  0  0
    3.8900   30.4440  -15.8250 H   0  0  0  0  0  0  0  0  0  0  0  0
    3.4500   31.4470  -14.4310 H   0  0  0  0  0  0  0  0  0  0  0  0
    2.1920   29.7090  -14.7170 C   0  0  0  0  0  0  0  0  0  0  0  0
    1.9080   29.5840  -13.6710 H   0  0  0  0  0  0  0  0  0  0  0  0
    2.2980   28.7180  -15.1600 H   0  0  0  0  0  0  0  0  0  0  0  0
    1.0490   30.4470  -15.4400 C   0  0  0  0  0  0  0  0  0  0  0  0
    0.7580   31.3250  -14.8660 H   0  0  0  0  0  0  0  0  0  0  0  0
    0.1870   29.7810  -15.4830 H   0  0  0  0  0  0  0  0  0  0  0  0
    1.4150   30.8860  -16.8660 C   0  0  0  0  0  0  0  0  0  0  0  0
    1.7980   30.0240  -17.4070 H   0  0  0  0  0  0  0  0  0  0  0  0
    2.1970   31.6450  -16.8210 H   0  0  0  0  0  0  0  0  0  0  0  0
    0.2380   31.4660  -17.6470 C   0  0  0  0  0  0  0  0  0  0  0  0
   -0.7250   30.7050  -17.8850 O   0  0  0  0  0  0  0  0  0  0  0  0
    0.3490   32.6490  -18.0370 O   0  5  0  0  0  0  0  0  0  0  0  0
  1  2  1  0  0  0  0
  1  3  1  0  0  0  0
  1  4  1  0  0  0  0
  1  5  1  0  0  0  0
  5  6  1  0  0  0  0
  5  7  1  0  0  0  0
  5  8  1  0  0  0  0
  8  9  1  0  0  0  0
  8 10  1  0  0  0  0
  8 11  1  0  0  0  0
 11 12  1  0  0  0  0
 11 13  1  0  0  0  0
 11 14  1  0  0  0  0
 14 15  1  0  0  0  0
 14 16  1  0  0  0  0
 14 17  1  0  0  0  0
 17 18  1  0  0  0  0
 17 19  1  0  0  0  0
 17 20  1  0  0  0  0
 20 21  1  0  0  0  0
 20 22  1  0  0  0  0
 20 23  1  0  0  0  0
 23 24  1  0  0  0  0
 23 25  1  0  0  0  0
 23 26  1  0  0  0  0
 26 27  1  0  0  0  0
 26 28  1  0  0  0  0
 26 29  1  0  0  0  0
 29 30  1  0  0  0  0
 29 31  1  0  0  0  0
 29 32  1  0  0  0  0
 32 33  1  0  0  0  0
 32 34  1  0  0  0  0
 32 35  1  0  0  0  0
 35 36  1  0  0  0  0
 35 37  1  0  0  0  0
 35 38  1  0  0  0  0
 38 39  1  0  0  0  0
 38 40  1  0  0  0  0
 38 41  1  0  0  0  0
 41 42  1  0  0  0  0
 41 43  1  0  0  0  0
 41 44  1  0  0  0  0
 44 45  1  0  0  0  0
 44 46  1  0  0  0  0
 44 47  1  0  0  0  0
 47 48  1  0  0  0  0
 47 49  1  0  0  0  0
 47 50  1  0  0  0  0
 50 51  1  0  0  0  0
 50 52  1  0  0  0  0
 50 53  1  0  0  0  0
 53 54  2  0  0  0  0
 53 55  1  0  0  0  0
M  CHG  1  55  -1
M  END
>  <rseq>
1

>  <mseq>
3

>  <S>
-6.2544632

>  <rmsd_refine>
1.1153299

>  <E_conf>
-82.569206

>  <E_place>
-60.699215

>  <E_score1>
3.5291018

>  <E_refine>
-29.983244

>  <E_score2>
-6.2544632

$$$$
Palmitic acid
  MOE2015           3D

 49 48  0  0  0  0  0  0  0  0999 V2000
   14.3330   24.9030   -5.6680 C   0  0  0  0  0  0  0  0  0  0  0  0
   14.7560   24.8800   -4.6630 H   0  0  0  0  0  0  0  0  0  0  0  0
   15.0820   25.2790   -6.3650 H   0  0  0  0  0  0  0  0  0  0  0  0
   14.0370   23.8950   -5.9560 H   0  0  0  0  0  0  0  0  0  0  0  0
   13.1060   25.8110   -5.6820 C   0  0  0  0  0  0  0  0  0  0  0  0
   13.4000   26.8090   -5.3530 H   0  0  0  0  0  0  0  0  0  0  0  0
   12.3620   25.4150   -4.9900 H   0  0  0  0  0  0  0  0  0  0  0  0
   12.5070   25.8930   -7.0920 C   0  0  0  0  0  0  0  0  0  0  0  0
   12.2220   24.8950   -7.4300 H   0  0  0  0  0  0  0  0  0  0  0  0
   13.2510   26.3030   -7.7740 H   0  0  0  0  0  0  0  0  0  0  0  0
   11.2720   26.7990   -7.0860 C   0  0  0  0  0  0  0  0  0  0  0  0
   11.5460   27.7670   -6.6620 H   0  0  0  0  0  0  0  0  0  0  0  0
   10.4950   26.3490   -6.4660 H   0  0  0  0  0  0  0  0  0  0  0  0
   10.7350   27.0120   -8.5050 C   0  0  0  0  0  0  0  0  0  0  0  0
   10.4330   26.0580   -8.9380 H   0  0  0  0  0  0  0  0  0  0  0  0
   11.5210   27.4520   -9.1200 H   0  0  0  0  0  0  0  0  0  0  0  0
    9.5320   27.9600   -8.4570 C   0  0  0  0  0  0  0  0  0  0  0  0
    9.7960   28.8460   -7.8800 H   0  0  0  0  0  0  0  0  0  0  0  0
    8.6980   27.4620   -7.9610 H   0  0  0  0  0  0  0  0  0  0  0  0
    9.1050   28.3900   -9.8640 C   0  0  0  0  0  0  0  0  0  0  0  0
    8.7070   27.5270  -10.3920 H   0  0  0  0  0  0  0  0  0  0  0  0
    9.9680   28.7700  -10.4130 H   0  0  0  0  0  0  0  0  0  0  0  0
    8.0440   29.4930   -9.7660 C   0  0  0  0  0  0  0  0  0  0  0  0
    8.4750   30.3540   -9.2540 H   0  0  0  0  0  0  0  0  0  0  0  0
    7.2050   29.1390   -9.1640 H   0  0  0  0  0  0  0  0  0  0  0  0
    7.5260   29.9510  -11.1360 C   0  0  0  0  0  0  0  0  0  0  0  0
    8.3640   30.2150  -11.7820 H   0  0  0  0  0  0  0  0  0  0  0  0
    6.9280   30.8400  -10.9750 H   0  0  0  0  0  0  0  0  0  0  0  0
    6.6650   28.8750  -11.8150 C   0  0  0  0  0  0  0  0  0  0  0  0
    6.0740   28.3690  -11.0530 H   0  0  0  0  0  0  0  0  0  0  0  0
    7.3220   28.1450  -12.2870 H   0  0  0  0  0  0  0  0  0  0  0  0
    5.6760   29.4030  -12.8620 C   0  0  0  0  0  0  0  0  0  0  0  0
    4.9230   30.0100  -12.3580 H   0  0  0  0  0  0  0  0  0  0  0  0
    5.1760   28.5410  -13.3060 H   0  0  0  0  0  0  0  0  0  0  0  0
    6.3260   30.2320  -13.9780 C   0  0  0  0  0  0  0  0  0  0  0  0
    7.2450   29.7380  -14.2960 H   0  0  0  0  0  0  0  0  0  0  0  0
    6.5910   31.2170  -13.5990 H   0  0  0  0  0  0  0  0  0  0  0  0
    5.4140   30.3880  -15.2040 C   0  0  0  0  0  0  0  0  0  0  0  0
    5.3000   29.4050  -15.6620 H   0  0  0  0  0  0  0  0  0  0  0  0
    5.9230   31.0360  -15.9200 H   0  0  0  0  0  0  0  0  0  0  0  0
    4.0090   30.9570  -14.9340 C   0  0  0  0  0  0  0  0  0  0  0  0
    4.0930   31.9560  -14.5060 H   0  0  0  0  0  0  0  0  0  0  0  0
    3.4660   30.3060  -14.2480 H   0  0  0  0  0  0  0  0  0  0  0  0
    3.2590   31.0250  -16.2680 C   0  0  0  0  0  0  0  0  0  0  0  0
    3.2910   30.0450  -16.7460 H   0  0  0  0  0  0  0  0  0  0  0  0
    3.7830   31.7370  -16.9000 H   0  0  0  0  0  0  0  0  0  0  0  0
    1.7950   31.4480  -16.1590 C   0  0  0  0  0  0  0  0  0  0  0  0
    1.4590   32.4850  -16.7750 O   0  0  0  0  0  0  0  0  0  0  0  0
    1.0290   30.6980  -15.5170 O   0  5  0  0  0  0  0  0  0  0  0  0
  1  2  1  0  0  0  0
  1  3  1  0  0  0  0
  1  4  1  0  0  0  0
  1  5  1  0  0  0  0
  5  6  1  0  0  0  0
  5  7  1  0  0  0  0
  5  8  1  0  0  0  0
  8  9  1  0  0  0  0
  8 10  1  0  0  0  0
  8 11  1  0  0  0  0
 11 12  1  0  0  0  0
 11 13  1  0  0  0  0
 11 14  1  0  0  0  0
 14 15  1  0  0  0  0
 14 16  1  0  0  0  0
 14 17  1  0  0  0  0
 17 18  1  0  0  0  0
 17 19  1  0  0  0  0
 17 20  1  0  0  0  0
 20 21  1  0  0  0  0
 20 22  1  0  0  0  0
 20 23  1  0  0  0  0
 23 24  1  0  0  0  0
 23 25  1  0  0  0  0
 23 26  1  0  0  0  0
 26 27  1  0  0  0  0
 26 28  1  0  0  0  0
 26 29  1  0  0  0  0
 29 30  1  0  0  0  0
 29 31  1  0  0  0  0
 29 32  1  0  0  0  0
 32 33  1  0  0  0  0
 32 34  1  0  0  0  0
 32 35  1  0  0  0  0
 35 36  1  0  0  0  0
 35 37  1  0  0  0  0
 35 38  1  0  0  0  0
 38 39  1  0  0  0  0
 38 40  1  0  0  0  0
 38 41  1  0  0  0  0
 41 42  1  0  0  0  0
 41 43  1  0  0  0  0
 41 44  1  0  0  0  0
 44 45  1  0  0  0  0
 44 46  1  0  0  0  0
 44 47  1  0  0  0  0
 47 48  2  0  0  0  0
 47 49  1  0  0  0  0
M  CHG  1  49  -1
M  END
>  <rseq>
1

>  <mseq>
4

>  <S>
-6.3659873

>  <rmsd_refine>
2.2957699

>  <E_conf>
-61.948635

>  <E_place>
-55.637196

>  <E_score1>
-1.294703

>  <E_refine>
-31.870914

>  <E_score2>
-6.3659873

$$$$
Palmitic acid
  MOE2015           3D

 49 48  0  0  0  0  0  0  0  0999 V2000
    2.9930   30.9400  -16.2290 C   0  0  0  0  0  0  0  0  0  0  0  0
    2.2420   30.5390  -16.9100 H   0  0  0  0  0  0  0  0  0  0  0  0
    3.6210   31.6560  -16.7570 H   0  0  0  0  0  0  0  0  0  0  0  0
    2.4890   31.4470  -15.4080 H   0  0  0  0  0  0  0  0  0  0  0  0
    3.8480   29.7960  -15.6780 C   0  0  0  0  0  0  0  0  0  0  0  0
    4.2460   29.2080  -16.5050 H   0  0  0  0  0  0  0  0  0  0  0  0
    3.2140   29.1560  -15.0630 H   0  0  0  0  0  0  0  0  0  0  0  0
    5.0090   30.3420  -14.8370 C   0  0  0  0  0  0  0  0  0  0  0  0
    4.6260   31.0970  -14.1490 H   0  0  0  0  0  0  0  0  0  0  0  0
    5.7430   30.8090  -15.4960 H   0  0  0  0  0  0  0  0  0  0  0  0
    5.6790   29.2280  -14.0180 C   0  0  0  0  0  0  0  0  0  0  0  0
    6.0410   28.4380  -14.6780 H   0  0  0  0  0  0  0  0  0  0  0  0
    4.9390   28.8070  -13.3360 H   0  0  0  0  0  0  0  0  0  0  0  0
    6.8500   29.8010  -13.2100 C   0  0  0  0  0  0  0  0  0  0  0  0
    6.5300   30.7310  -12.7500 H   0  0  0  0  0  0  0  0  0  0  0  0
    7.6830   30.0150  -13.8810 H   0  0  0  0  0  0  0  0  0  0  0  0
    7.3120   28.8520  -12.0980 C   0  0  0  0  0  0  0  0  0  0  0  0
    7.7910   27.9830  -12.5460 H   0  0  0  0  0  0  0  0  0  0  0  0
    6.4460   28.5300  -11.5180 H   0  0  0  0  0  0  0  0  0  0  0  0
    8.2910   29.5790  -11.1650 C   0  0  0  0  0  0  0  0  0  0  0  0
    7.8130   30.4920  -10.8050 H   0  0  0  0  0  0  0  0  0  0  0  0
    9.1770   29.8570  -11.7330 H   0  0  0  0  0  0  0  0  0  0  0  0
    8.7040   28.7560   -9.9340 C   0  0  0  0  0  0  0  0  0  0  0  0
    7.8210   28.2660   -9.5210 H   0  0  0  0  0  0  0  0  0  0  0  0
    9.0930   29.4380   -9.1780 H   0  0  0  0  0  0  0  0  0  0  0  0
    9.7810   27.7090  -10.2520 C   0  0  0  0  0  0  0  0  0  0  0  0
   10.7040   28.2070  -10.5510 H   0  0  0  0  0  0  0  0  0  0  0  0
    9.4530   27.1070  -11.0940 H   0  0  0  0  0  0  0  0  0  0  0  0
   10.0560   26.7770   -9.0600 C   0  0  0  0  0  0  0  0  0  0  0  0
   10.5440   25.8790   -9.4360 H   0  0  0  0  0  0  0  0  0  0  0  0
    9.1140   26.4820   -8.5960 H   0  0  0  0  0  0  0  0  0  0  0  0
   10.9690   27.4170   -8.0060 C   0  0  0  0  0  0  0  0  0  0  0  0
   10.5020   28.3200   -7.6150 H   0  0  0  0  0  0  0  0  0  0  0  0
   11.9060   27.6870   -8.4910 H   0  0  0  0  0  0  0  0  0  0  0  0
   11.2400   26.4630   -6.8300 C   0  0  0  0  0  0  0  0  0  0  0  0
   11.4510   25.4590   -7.2030 H   0  0  0  0  0  0  0  0  0  0  0  0
   10.3410   26.4150   -6.2140 H   0  0  0  0  0  0  0  0  0  0  0  0
   12.4170   26.9380   -5.9610 C   0  0  0  0  0  0  0  0  0  0  0  0
   12.3480   26.4620   -4.9820 H   0  0  0  0  0  0  0  0  0  0  0  0
   12.3500   28.0170   -5.8240 H   0  0  0  0  0  0  0  0  0  0  0  0
   13.7660   26.5550   -6.5940 C   0  0  0  0  0  0  0  0  0  0  0  0
   13.7710   26.8670   -7.6340 H   0  0  0  0  0  0  0  0  0  0  0  0
   13.8580   25.4680   -6.5690 H   0  0  0  0  0  0  0  0  0  0  0  0
   14.9910   27.1620   -5.8960 C   0  0  0  0  0  0  0  0  0  0  0  0
   15.8560   26.5320   -6.1150 H   0  0  0  0  0  0  0  0  0  0  0  0
   14.8420   27.1570   -4.8150 H   0  0  0  0  0  0  0  0  0  0  0  0
   15.2880   28.5850   -6.3790 C   0  0  0  0  0  0  0  0  0  0  0  0
   14.5300   29.4970   -5.9840 O   0  0  0  0  0  0  0  0  0  0  0  0
   16.2790   28.7410   -7.1280 O   0  5  0  0  0  0  0  0  0  0  0  0
  1  2  1  0  0  0  0
  1  3  1  0  0  0  0
  1  4  1  0  0  0  0
  1  5  1  0  0  0  0
  5  6  1  0  0  0  0
  5  7  1  0  0  0  0
  5  8  1  0  0  0  0
  8  9  1  0  0  0  0
  8 10  1  0  0  0  0
  8 11  1  0  0  0  0
 11 12  1  0  0  0  0
 11 13  1  0  0  0  0
 11 14  1  0  0  0  0
 14 15  1  0  0  0  0
 14 16  1  0  0  0  0
 14 17  1  0  0  0  0
 17 18  1  0  0  0  0
 17 19  1  0  0  0  0
 17 20  1  0  0  0  0
 20 21  1  0  0  0  0
 20 22  1  0  0  0  0
 20 23  1  0  0  0  0
 23 24  1  0  0  0  0
 23 25  1  0  0  0  0
 23 26  1  0  0  0  0
 26 27  1  0  0  0  0
 26 28  1  0  0  0  0
 26 29  1  0  0  0  0
 29 30  1  0  0  0  0
 29 31  1  0  0  0  0
 29 32  1  0  0  0  0
 32 33  1  0  0  0  0
 32 34  1  0  0  0  0
 32 35  1  0  0  0  0
 35 36  1  0  0  0  0
 35 37  1  0  0  0  0
 35 38  1  0  0  0  0
 38 39  1  0  0  0  0
 38 40  1  0  0  0  0
 38 41  1  0  0  0  0
 41 42  1  0  0  0  0
 41 43  1  0  0  0  0
 41 44  1  0  0  0  0
 44 45  1  0  0  0  0
 44 46  1  0  0  0  0
 44 47  1  0  0  0  0
 47 48  2  0  0  0  0
 47 49  1  0  0  0  0
M  CHG  1  49  -1
M  END
>  <rseq>
1

>  <mseq>
4

>  <S>
-6.3046317

>  <rmsd_refine>
1.3824066

>  <E_conf>
-59.98003

>  <E_place>
-63.452202

>  <E_score1>
-3.9774432

>  <E_refine>
-34.0172

>  <E_score2>
-6.3046317

$$$$
Palmitic acid
  MOE2015           3D

 49 48  0  0  0  0  0  0  0  0999 V2000
    5.0400   30.4910  -15.6660 C   0  0  0  0  0  0  0  0  0  0  0  0
    4.0740   30.9350  -15.9080 H   0  0  0  0  0  0  0  0  0  0  0  0
    5.1380   29.5480  -16.2030 H   0  0  0  0  0  0  0  0  0  0  0  0
    5.8330   31.1770  -15.9680 H   0  0  0  0  0  0  0  0  0  0  0  0
    5.1170   30.2310  -14.1610 C   0  0  0  0  0  0  0  0  0  0  0  0
    4.3520   29.5010  -13.8920 H   0  0  0  0  0  0  0  0  0  0  0  0
    4.9010   31.1640  -13.6440 H   0  0  0  0  0  0  0  0  0  0  0  0
    6.4970   29.7120  -13.7230 C   0  0  0  0  0  0  0  0  0  0  0  0
    7.2570   30.4510  -13.9760 H   0  0  0  0  0  0  0  0  0  0  0  0
    6.7170   28.7790  -14.2440 H   0  0  0  0  0  0  0  0  0  0  0  0
    6.5140   29.4590  -12.2090 C   0  0  0  0  0  0  0  0  0  0  0  0
    5.7630   28.7040  -11.9700 H   0  0  0  0  0  0  0  0  0  0  0  0
    6.2530   30.3790  -11.6940 H   0  0  0  0  0  0  0  0  0  0  0  0
    7.8790   28.9880  -11.6910 C   0  0  0  0  0  0  0  0  0  0  0  0
    8.6400   29.7330  -11.9250 H   0  0  0  0  0  0  0  0  0  0  0  0
    8.1360   28.0460  -12.1730 H   0  0  0  0  0  0  0  0  0  0  0  0
    7.8140   28.7890  -10.1700 C   0  0  0  0  0  0  0  0  0  0  0  0
    6.9570   28.1580   -9.9330 H   0  0  0  0  0  0  0  0  0  0  0  0
    7.6630   29.7590   -9.6940 H   0  0  0  0  0  0  0  0  0  0  0  0
    9.0810   28.1400   -9.5940 C   0  0  0  0  0  0  0  0  0  0  0  0
    9.9230   28.8190   -9.7130 H   0  0  0  0  0  0  0  0  0  0  0  0
    9.2940   27.2120  -10.1260 H   0  0  0  0  0  0  0  0  0  0  0  0
    8.8550   27.8360   -8.1050 C   0  0  0  0  0  0  0  0  0  0  0  0
    8.0710   27.0830   -8.0130 H   0  0  0  0  0  0  0  0  0  0  0  0
    8.5020   28.7440   -7.6130 H   0  0  0  0  0  0  0  0  0  0  0  0
   10.0960   27.3490   -7.3440 C   0  0  0  0  0  0  0  0  0  0  0  0
    9.7890   27.1750   -6.3140 H   0  0  0  0  0  0  0  0  0  0  0  0
   10.8400   28.1430   -7.3490 H   0  0  0  0  0  0  0  0  0  0  0  0
   10.7060   26.0470   -7.8970 C   0  0  0  0  0  0  0  0  0  0  0  0
   11.2490   26.2550   -8.8180 H   0  0  0  0  0  0  0  0  0  0  0  0
    9.8850   25.3700   -8.1320 H   0  0  0  0  0  0  0  0  0  0  0  0
   11.6220   25.3170   -6.8920 C   0  0  0  0  0  0  0  0  0  0  0  0
   11.6080   24.2570   -7.1490 H   0  0  0  0  0  0  0  0  0  0  0  0
   11.1960   25.4030   -5.8910 H   0  0  0  0  0  0  0  0  0  0  0  0
   13.1010   25.7420   -6.8410 C   0  0  0  0  0  0  0  0  0  0  0  0
   13.5790   25.4330   -7.7680 H   0  0  0  0  0  0  0  0  0  0  0  0
   13.5760   25.1960   -6.0240 H   0  0  0  0  0  0  0  0  0  0  0  0
   13.3430   27.2440   -6.6400 C   0  0  0  0  0  0  0  0  0  0  0  0
   12.7060   27.6040   -5.8320 H   0  0  0  0  0  0  0  0  0  0  0  0
   13.0800   27.7600   -7.5640 H   0  0  0  0  0  0  0  0  0  0  0  0
   14.8110   27.5520   -6.2940 C   0  0  0  0  0  0  0  0  0  0  0  0
   15.4630   26.9480   -6.9230 H   0  0  0  0  0  0  0  0  0  0  0  0
   15.0080   27.2780   -5.2570 H   0  0  0  0  0  0  0  0  0  0  0  0
   15.1740   29.0280   -6.5170 C   0  0  0  0  0  0  0  0  0  0  0  0
   14.8290   29.3440   -7.5020 H   0  0  0  0  0  0  0  0  0  0  0  0
   16.2600   29.1190   -6.5180 H   0  0  0  0  0  0  0  0  0  0  0  0
   14.5990   29.9550   -5.4430 C   0  0  0  0  0  0  0  0  0  0  0  0
   15.4090   30.4800   -4.6480 O   0  0  0  0  0  0  0  0  0  0  0  0
   13.3610   30.1330   -5.4390 O   0  5  0  0  0  0  0  0  0  0  0  0
  1  2  1  0  0  0  0
  1  3  1  0  0  0  0
  1  4  1  0  0  0  0
  1  5  1  0  0  0  0
  5  6  1  0  0  0  0
  5  7  1  0  0  0  0
  5  8  1  0  0  0  0
  8  9  1  0  0  0  0
  8 10  1  0  0  0  0
  8 11  1  0  0  0  0
 11 12  1  0  0  0  0
 11 13  1  0  0  0  0
 11 14  1  0  0  0  0
 14 15  1  0  0  0  0
 14 16  1  0  0  0  0
 14 17  1  0  0  0  0
 17 18  1  0  0  0  0
 17 19  1  0  0  0  0
 17 20  1  0  0  0  0
 20 21  1  0  0  0  0
 20 22  1  0  0  0  0
 20 23  1  0  0  0  0
 23 24  1  0  0  0  0
 23 25  1  0  0  0  0
 23 26  1  0  0  0  0
 26 27  1  0  0  0  0
 26 28  1  0  0  0  0
 26 29  1  0  0  0  0
 29 30  1  0  0  0  0
 29 31  1  0  0  0  0
 29 32  1  0  0  0  0
 32 33  1  0  0  0  0
 32 34  1  0  0  0  0
 32 35  1  0  0  0  0
 35 36  1  0  0  0  0
 35 37  1  0  0  0  0
 35 38  1  0  0  0  0
 38 39  1  0  0  0  0
 38 40  1  0  0  0  0
 38 41  1  0  0  0  0
 41 42  1  0  0  0  0
 41 43  1  0  0  0  0
 41 44  1  0  0  0  0
 44 45  1  0  0  0  0
 44 46  1  0  0  0  0
 44 47  1  0  0  0  0
 47 48  2  0  0  0  0
 47 49  1  0  0  0  0
M  CHG  1  49  -1
M  END
>  <rseq>
1

>  <mseq>
4

>  <S>
-6.2491784

>  <rmsd_refine>
1.4242877

>  <E_conf>
-60.377708

>  <E_place>
-64.659355

>  <E_score1>
-0.22375527

>  <E_refine>
-31.744377

>  <E_score2>
-6.2491784

$$$$
Palmitic acid
  MOE2015           3D

 49 48  0  0  0  0  0  0  0  0999 V2000
   16.8220   25.9840   -3.8530 C   0  0  0  0  0  0  0  0  0  0  0  0
   17.6880   25.3730   -4.1110 H   0  0  0  0  0  0  0  0  0  0  0  0
   16.2690   25.4970   -3.0500 H   0  0  0  0  0  0  0  0  0  0  0  0
   17.1650   26.9620   -3.5140 H   0  0  0  0  0  0  0  0  0  0  0  0
   15.9230   26.1390   -5.0830 C   0  0  0  0  0  0  0  0  0  0  0  0
   15.5670   25.1520   -5.3700 H   0  0  0  0  0  0  0  0  0  0  0  0
   16.5130   26.5520   -5.9030 H   0  0  0  0  0  0  0  0  0  0  0  0
   14.7280   27.0670   -4.7990 C   0  0  0  0  0  0  0  0  0  0  0  0
   15.1150   28.0450   -4.5090 H   0  0  0  0  0  0  0  0  0  0  0  0
   14.1450   26.6710   -3.9670 H   0  0  0  0  0  0  0  0  0  0  0  0
   13.8090   27.2600   -6.0180 C   0  0  0  0  0  0  0  0  0  0  0  0
   14.4220   27.5120   -6.8850 H   0  0  0  0  0  0  0  0  0  0  0  0
   13.1460   28.1010   -5.8160 H   0  0  0  0  0  0  0  0  0  0  0  0
   12.9510   26.0200   -6.3300 C   0  0  0  0  0  0  0  0  0  0  0  0
   12.2180   25.8730   -5.5350 H   0  0  0  0  0  0  0  0  0  0  0  0
   13.5900   25.1390   -6.3700 H   0  0  0  0  0  0  0  0  0  0  0  0
   12.2300   26.1120   -7.6820 C   0  0  0  0  0  0  0  0  0  0  0  0
   11.8210   25.1260   -7.9060 H   0  0  0  0  0  0  0  0  0  0  0  0
   12.9660   26.3540   -8.4470 H   0  0  0  0  0  0  0  0  0  0  0  0
   11.0810   27.1290   -7.7520 C   0  0  0  0  0  0  0  0  0  0  0  0
   11.4170   28.1030   -7.3990 H   0  0  0  0  0  0  0  0  0  0  0  0
   10.2580   26.7860   -7.1230 H   0  0  0  0  0  0  0  0  0  0  0  0
   10.6060   27.2580   -9.2090 C   0  0  0  0  0  0  0  0  0  0  0  0
   10.3980   26.2650   -9.6080 H   0  0  0  0  0  0  0  0  0  0  0  0
   11.4070   27.7030   -9.8000 H   0  0  0  0  0  0  0  0  0  0  0  0
    9.3380   28.1120   -9.3470 C   0  0  0  0  0  0  0  0  0  0  0  0
    9.4620   29.0620   -8.8250 H   0  0  0  0  0  0  0  0  0  0  0  0
    8.5050   27.5700   -8.8980 H   0  0  0  0  0  0  0  0  0  0  0  0
    9.0430   28.3850  -10.8300 C   0  0  0  0  0  0  0  0  0  0  0  0
    9.1410   27.4550  -11.3870 H   0  0  0  0  0  0  0  0  0  0  0  0
    9.7800   29.0850  -11.2230 H   0  0  0  0  0  0  0  0  0  0  0  0
    7.6340   28.9570  -11.0400 C   0  0  0  0  0  0  0  0  0  0  0  0
    7.5870   29.9630  -10.6190 H   0  0  0  0  0  0  0  0  0  0  0  0
    6.9140   28.3300  -10.5140 H   0  0  0  0  0  0  0  0  0  0  0  0
    7.2560   29.0040  -12.5300 C   0  0  0  0  0  0  0  0  0  0  0  0
    7.4230   28.0250  -12.9770 H   0  0  0  0  0  0  0  0  0  0  0  0
    7.8840   29.7380  -13.0360 H   0  0  0  0  0  0  0  0  0  0  0  0
    5.7790   29.3920  -12.7000 C   0  0  0  0  0  0  0  0  0  0  0  0
    5.6210   30.3440  -12.2020 H   0  0  0  0  0  0  0  0  0  0  0  0
    5.1480   28.6510  -12.2070 H   0  0  0  0  0  0  0  0  0  0  0  0
    5.3350   29.5420  -14.1640 C   0  0  0  0  0  0  0  0  0  0  0  0
    6.0620   30.1490  -14.7050 H   0  0  0  0  0  0  0  0  0  0  0  0
    4.3820   30.0720  -14.1660 H   0  0  0  0  0  0  0  0  0  0  0  0
    5.1480   28.1930  -14.8790 C   0  0  0  0  0  0  0  0  0  0  0  0
    4.4170   27.5970  -14.3300 H   0  0  0  0  0  0  0  0  0  0  0  0
    6.0960   27.6530  -14.8810 H   0  0  0  0  0  0  0  0  0  0  0  0
    4.6590   28.3490  -16.3250 C   0  0  0  0  0  0  0  0  0  0  0  0
    5.1700   27.5950  -17.1810 O   0  0  0  0  0  0  0  0  0  0  0  0
    3.7790   29.2080  -16.5600 O   0  5  0  0  0  0  0  0  0  0  0  0
  1  2  1  0  0  0  0
  1  3  1  0  0  0  0
  1  4  1  0  0  0  0
  1  5  1  0  0  0  0
  5  6  1  0  0  0  0
  5  7  1  0  0  0  0
  5  8  1  0  0  0  0
  8  9  1  0  0  0  0
  8 10  1  0  0  0  0
  8 11  1  0  0  0  0
 11 12  1  0  0  0  0
 11 13  1  0  0  0  0
 11 14  1  0  0  0  0
 14 15  1  0  0  0  0
 14 16  1  0  0  0  0
 14 17  1  0  0  0  0
 17 18  1  0  0  0  0
 17 19  1  0  0  0  0
 17 20  1  0  0  0  0
 20 21  1  0  0  0  0
 20 22  1  0  0  0  0
 20 23  1  0  0  0  0
 23 24  1  0  0  0  0
 23 25  1  0  0  0  0
 23 26  1  0  0  0  0
 26 27  1  0  0  0  0
 26 28  1  0  0  0  0
 26 29  1  0  0  0  0
 29 30  1  0  0  0  0
 29 31  1  0  0  0  0
 29 32  1  0  0  0  0
 32 33  1  0  0  0  0
 32 34  1  0  0  0  0
 32 35  1  0  0  0  0
 35 36  1  0  0  0  0
 35 37  1  0  0  0  0
 35 38  1  0  0  0  0
 38 39  1  0  0  0  0
 38 40  1  0  0  0  0
 38 41  1  0  0  0  0
 41 42  1  0  0  0  0
 41 43  1  0  0  0  0
 41 44  1  0  0  0  0
 44 45  1  0  0  0  0
 44 46  1  0  0  0  0
 44 47  1  0  0  0  0
 47 48  2  0  0  0  0
 47 49  1  0  0  0  0
M  CHG  1  49  -1
M  END
>  <rseq>
1

>  <mseq>
4

>  <S>
-6.2130675

>  <rmsd_refine>
1.1884837

>  <E_conf>
-62.051254

>  <E_place>
-58.003773

>  <E_score1>
-0.90546095

>  <E_refine>
-30.246754

>  <E_score2>
-6.2130675

$$$$
Palmitic acid
  MOE2015           3D

 49 48  0  0  0  0  0  0  0  0999 V2000
   14.9700   25.8700   -6.1550 C   0  0  0  0  0  0  0  0  0  0  0  0
   15.8050   26.5710   -6.1390 H   0  0  0  0  0  0  0  0  0  0  0  0
   15.1400   25.1330   -6.9400 H   0  0  0  0  0  0  0  0  0  0  0  0
   14.9070   25.3640   -5.1910 H   0  0  0  0  0  0  0  0  0  0  0  0
   13.6700   26.6280   -6.4370 C   0  0  0  0  0  0  0  0  0  0  0  0
   13.7680   27.1500   -7.3880 H   0  0  0  0  0  0  0  0  0  0  0  0
   13.5150   27.3650   -5.6480 H   0  0  0  0  0  0  0  0  0  0  0  0
   12.4700   25.6690   -6.4840 C   0  0  0  0  0  0  0  0  0  0  0  0
   12.4020   25.1560   -5.5230 H   0  0  0  0  0  0  0  0  0  0  0  0
   12.6270   24.9190   -7.2600 H   0  0  0  0  0  0  0  0  0  0  0  0
   11.1380   26.3940   -6.7350 C   0  0  0  0  0  0  0  0  0  0  0  0
   11.0700   27.2530   -6.0700 H   0  0  0  0  0  0  0  0  0  0  0  0
   10.3230   25.7090   -6.4960 H   0  0  0  0  0  0  0  0  0  0  0  0
   10.9700   26.8600   -8.1870 C   0  0  0  0  0  0  0  0  0  0  0  0
   10.9880   25.9860   -8.8380 H   0  0  0  0  0  0  0  0  0  0  0  0
   11.7910   27.5220   -8.4620 H   0  0  0  0  0  0  0  0  0  0  0  0
    9.6440   27.6040   -8.3930 C   0  0  0  0  0  0  0  0  0  0  0  0
    9.6290   28.5060   -7.7810 H   0  0  0  0  0  0  0  0  0  0  0  0
    8.8140   26.9570   -8.1010 H   0  0  0  0  0  0  0  0  0  0  0  0
    9.4960   27.9820   -9.8710 C   0  0  0  0  0  0  0  0  0  0  0  0
    9.5430   27.0700  -10.4670 H   0  0  0  0  0  0  0  0  0  0  0  0
   10.3290   28.6190  -10.1650 H   0  0  0  0  0  0  0  0  0  0  0  0
    8.1770   28.7110  -10.1680 C   0  0  0  0  0  0  0  0  0  0  0  0
    8.1480   29.6620   -9.6340 H   0  0  0  0  0  0  0  0  0  0  0  0
    7.3370   28.0940   -9.8490 H   0  0  0  0  0  0  0  0  0  0  0  0
    8.0950   28.9600  -11.6780 C   0  0  0  0  0  0  0  0  0  0  0  0
    8.2550   28.0130  -12.1920 H   0  0  0  0  0  0  0  0  0  0  0  0
    8.8910   29.6530  -11.9530 H   0  0  0  0  0  0  0  0  0  0  0  0
    6.7580   29.5330  -12.1550 C   0  0  0  0  0  0  0  0  0  0  0  0
    6.6180   30.5150  -11.7110 H   0  0  0  0  0  0  0  0  0  0  0  0
    5.9510   28.8710  -11.8420 H   0  0  0  0  0  0  0  0  0  0  0  0
    6.7810   29.6490  -13.6910 C   0  0  0  0  0  0  0  0  0  0  0  0
    6.9030   28.6540  -14.1230 H   0  0  0  0  0  0  0  0  0  0  0  0
    7.6480   30.2430  -13.9770 H   0  0  0  0  0  0  0  0  0  0  0  0
    5.5400   30.3090  -14.3090 C   0  0  0  0  0  0  0  0  0  0  0  0
    5.7570   30.4890  -15.3620 H   0  0  0  0  0  0  0  0  0  0  0  0
    5.3660   31.2720  -13.8350 H   0  0  0  0  0  0  0  0  0  0  0  0
    4.2720   29.4460  -14.2020 C   0  0  0  0  0  0  0  0  0  0  0  0
    4.0990   29.1880  -13.1580 H   0  0  0  0  0  0  0  0  0  0  0  0
    4.4200   28.5210  -14.7620 H   0  0  0  0  0  0  0  0  0  0  0  0
    3.0090   30.1540  -14.7210 C   0  0  0  0  0  0  0  0  0  0  0  0
    2.8410   31.0490  -14.1270 H   0  0  0  0  0  0  0  0  0  0  0  0
    2.1620   29.4840  -14.5710 H   0  0  0  0  0  0  0  0  0  0  0  0
    3.0780   30.5400  -16.2050 C   0  0  0  0  0  0  0  0  0  0  0  0
    3.3210   29.6530  -16.7930 H   0  0  0  0  0  0  0  0  0  0  0  0
    3.8630   31.2810  -16.3570 H   0  0  0  0  0  0  0  0  0  0  0  0
    1.7510   31.1170  -16.7000 C   0  0  0  0  0  0  0  0  0  0  0  0
    1.6930   32.3540  -16.8810 O   0  0  0  0  0  0  0  0  0  0  0  0
    0.8260   30.3060  -16.9280 O   0  5  0  0  0  0  0  0  0  0  0  0
  1  2  1  0  0  0  0
  1  3  1  0  0  0  0
  1  4  1  0  0  0  0
  1  5  1  0  0  0  0
  5  6  1  0  0  0  0
  5  7  1  0  0  0  0
  5  8  1  0  0  0  0
  8  9  1  0  0  0  0
  8 10  1  0  0  0  0
  8 11  1  0  0  0  0
 11 12  1  0  0  0  0
 11 13  1  0  0  0  0
 11 14  1  0  0  0  0
 14 15  1  0  0  0  0
 14 16  1  0  0  0  0
 14 17  1  0  0  0  0
 17 18  1  0  0  0  0
 17 19  1  0  0  0  0
 17 20  1  0  0  0  0
 20 21  1  0  0  0  0
 20 22  1  0  0  0  0
 20 23  1  0  0  0  0
 23 24  1  0  0  0  0
 23 25  1  0  0  0  0
 23 26  1  0  0  0  0
 26 27  1  0  0  0  0
 26 28  1  0  0  0  0
 26 29  1  0  0  0  0
 29 30  1  0  0  0  0
 29 31  1  0  0  0  0
 29 32  1  0  0  0  0
 32 33  1  0  0  0  0
 32 34  1  0  0  0  0
 32 35  1  0  0  0  0
 35 36  1  0  0  0  0
 35 37  1  0  0  0  0
 35 38  1  0  0  0  0
 38 39  1  0  0  0  0
 38 40  1  0  0  0  0
 38 41  1  0  0  0  0
 41 42  1  0  0  0  0
 41 43  1  0  0  0  0
 41 44  1  0  0  0  0
 44 45  1  0  0  0  0
 44 46  1  0  0  0  0
 44 47  1  0  0  0  0
 47 48  2  0  0  0  0
 47 49  1  0  0  0  0
M  CHG  1  49  -1
M  END
>  <rseq>
1

>  <mseq>
4

>  <S>
-6.174439

>  <rmsd_refine>
0.82896072

>  <E_conf>
-63.827717

>  <E_place>
-77.320641

>  <E_score1>
-2.1212752

>  <E_refine>
-31.005936

>  <E_score2>
-6.174439

$$$$
Palmitic acid
  MOE2015           3D

 49 48  0  0  0  0  0  0  0  0999 V2000
    5.3090   31.3320  -15.6370 C   0  0  0  0  0  0  0  0  0  0  0  0
    5.2090   31.5220  -16.7020 H   0  0  0  0  0  0  0  0  0  0  0  0
    6.3670   31.3350  -15.3820 H   0  0  0  0  0  0  0  0  0  0  0  0
    4.7940   32.1170  -15.0820 H   0  0  0  0  0  0  0  0  0  0  0  0
    4.6960   29.9670  -15.3120 C   0  0  0  0  0  0  0  0  0  0  0  0
    5.2470   29.1880  -15.8370 H   0  0  0  0  0  0  0  0  0  0  0  0
    3.6690   29.9570  -15.6780 H   0  0  0  0  0  0  0  0  0  0  0  0
    4.6770   29.6500  -13.8100 C   0  0  0  0  0  0  0  0  0  0  0  0
    4.1920   28.6810  -13.6790 H   0  0  0  0  0  0  0  0  0  0  0  0
    4.0680   30.4000  -13.3060 H   0  0  0  0  0  0  0  0  0  0  0  0
    6.0650   29.6000  -13.1470 C   0  0  0  0  0  0  0  0  0  0  0  0
    6.5410   30.5790  -13.2080 H   0  0  0  0  0  0  0  0  0  0  0  0
    6.6910   28.8640  -13.6520 H   0  0  0  0  0  0  0  0  0  0  0  0
    5.9050   29.2140  -11.6710 C   0  0  0  0  0  0  0  0  0  0  0  0
    5.4940   28.2070  -11.6170 H   0  0  0  0  0  0  0  0  0  0  0  0
    5.1880   29.8900  -11.2080 H   0  0  0  0  0  0  0  0  0  0  0  0
    7.2230   29.2670  -10.8830 C   0  0  0  0  0  0  0  0  0  0  0  0
    7.6830   30.2500  -11.0010 H   0  0  0  0  0  0  0  0  0  0  0  0
    7.9020   28.5040  -11.2640 H   0  0  0  0  0  0  0  0  0  0  0  0
    6.9270   29.0220   -9.3940 C   0  0  0  0  0  0  0  0  0  0  0  0
    6.4140   28.0670   -9.2800 H   0  0  0  0  0  0  0  0  0  0  0  0
    6.2520   29.8050   -9.0440 H   0  0  0  0  0  0  0  0  0  0  0  0
    8.1590   29.0270   -8.4770 C   0  0  0  0  0  0  0  0  0  0  0  0
    7.7980   28.9440   -7.4510 H   0  0  0  0  0  0  0  0  0  0  0  0
    8.6840   29.9780   -8.5760 H   0  0  0  0  0  0  0  0  0  0  0  0
    9.1370   27.8720   -8.7500 C   0  0  0  0  0  0  0  0  0  0  0  0
    9.7030   28.0850   -9.6580 H   0  0  0  0  0  0  0  0  0  0  0  0
    8.5810   26.9450   -8.8850 H   0  0  0  0  0  0  0  0  0  0  0  0
   10.0980   27.6990   -7.5660 C   0  0  0  0  0  0  0  0  0  0  0  0
    9.5250   27.3960   -6.6880 H   0  0  0  0  0  0  0  0  0  0  0  0
   10.5750   28.6500   -7.3420 H   0  0  0  0  0  0  0  0  0  0  0  0
   11.1770   26.6440   -7.8400 C   0  0  0  0  0  0  0  0  0  0  0  0
   11.6810   26.8660   -8.7820 H   0  0  0  0  0  0  0  0  0  0  0  0
   10.7020   25.6630   -7.9130 H   0  0  0  0  0  0  0  0  0  0  0  0
   12.2100   26.6450   -6.7040 C   0  0  0  0  0  0  0  0  0  0  0  0
   11.6900   26.6060   -5.7450 H   0  0  0  0  0  0  0  0  0  0  0  0
   12.7830   27.5700   -6.7570 H   0  0  0  0  0  0  0  0  0  0  0  0
   13.1520   25.4380   -6.8000 C   0  0  0  0  0  0  0  0  0  0  0  0
   13.6560   25.4360   -7.7630 H   0  0  0  0  0  0  0  0  0  0  0  0
   12.5410   24.5350   -6.7430 H   0  0  0  0  0  0  0  0  0  0  0  0
   14.1900   25.3730   -5.6650 C   0  0  0  0  0  0  0  0  0  0  0  0
   14.4340   24.3220   -5.5200 H   0  0  0  0  0  0  0  0  0  0  0  0
   13.7480   25.7270   -4.7330 H   0  0  0  0  0  0  0  0  0  0  0  0
   15.5190   26.1050   -5.9320 C   0  0  0  0  0  0  0  0  0  0  0  0
   15.9320   25.7440   -6.8730 H   0  0  0  0  0  0  0  0  0  0  0  0
   16.2200   25.8300   -5.1420 H   0  0  0  0  0  0  0  0  0  0  0  0
   15.4280   27.6330   -5.9660 C   0  0  0  0  0  0  0  0  0  0  0  0
   14.7750   28.1950   -5.0600 O   0  0  0  0  0  0  0  0  0  0  0  0
   16.0650   28.2220   -6.8680 O   0  5  0  0  0  0  0  0  0  0  0  0
  1  2  1  0  0  0  0
  1  3  1  0  0  0  0
  1  4  1  0  0  0  0
  1  5  1  0  0  0  0
  5  6  1  0  0  0  0
  5  7  1  0  0  0  0
  5  8  1  0  0  0  0
  8  9  1  0  0  0  0
  8 10  1  0  0  0  0
  8 11  1  0  0  0  0
 11 12  1  0  0  0  0
 11 13  1  0  0  0  0
 11 14  1  0  0  0  0
 14 15  1  0  0  0  0
 14 16  1  0  0  0  0
 14 17  1  0  0  0  0
 17 18  1  0  0  0  0
 17 19  1  0  0  0  0
 17 20  1  0  0  0  0
 20 21  1  0  0  0  0
 20 22  1  0  0  0  0
 20 23  1  0  0  0  0
 23 24  1  0  0  0  0
 23 25  1  0  0  0  0
 23 26  1  0  0  0  0
 26 27  1  0  0  0  0
 26 28  1  0  0  0  0
 26 29  1  0  0  0  0
 29 30  1  0  0  0  0
 29 31  1  0  0  0  0
 29 32  1  0  0  0  0
 32 33  1  0  0  0  0
 32 34  1  0  0  0  0
 32 35  1  0  0  0  0
 35 36  1  0  0  0  0
 35 37  1  0  0  0  0
 35 38  1  0  0  0  0
 38 39  1  0  0  0  0
 38 40  1  0  0  0  0
 38 41  1  0  0  0  0
 41 42  1  0  0  0  0
 41 43  1  0  0  0  0
 41 44  1  0  0  0  0
 44 45  1  0  0  0  0
 44 46  1  0  0  0  0
 44 47  1  0  0  0  0
 47 48  2  0  0  0  0
 47 49  1  0  0  0  0
M  CHG  1  49  -1
M  END
>  <rseq>
1

>  <mseq>
4

>  <S>
-6.1497636

>  <rmsd_refine>
2.1580868

>  <E_conf>
-61.400795

>  <E_place>
-53.484051

>  <E_score1>
-3.2475793

>  <E_refine>
-32.625729

>  <E_score2>
-6.1497636

$$$$
Palmitic acid
  MOE2015           3D

 49 48  0  0  0  0  0  0  0  0999 V2000
    2.0350   31.5450  -16.4430 C   0  0  0  0  0  0  0  0  0  0  0  0
    1.8370   32.5380  -16.8470 H   0  0  0  0  0  0  0  0  0  0  0  0
    1.3300   31.3430  -15.6360 H   0  0  0  0  0  0  0  0  0  0  0  0
    1.8990   30.8000  -17.2250 H   0  0  0  0  0  0  0  0  0  0  0  0
    3.4690   31.4880  -15.9070 C   0  0  0  0  0  0  0  0  0  0  0  0
    3.5870   32.2170  -15.1070 H   0  0  0  0  0  0  0  0  0  0  0  0
    4.1630   31.7430  -16.7030 H   0  0  0  0  0  0  0  0  0  0  0  0
    3.8160   30.0910  -15.3870 C   0  0  0  0  0  0  0  0  0  0  0  0
    3.8590   29.3980  -16.2280 H   0  0  0  0  0  0  0  0  0  0  0  0
    3.0470   29.7570  -14.6880 H   0  0  0  0  0  0  0  0  0  0  0  0
    5.1680   30.1160  -14.6650 C   0  0  0  0  0  0  0  0  0  0  0  0
    5.0710   30.7280  -13.7680 H   0  0  0  0  0  0  0  0  0  0  0  0
    5.9220   30.5640  -15.3140 H   0  0  0  0  0  0  0  0  0  0  0  0
    5.6070   28.6950  -14.2880 C   0  0  0  0  0  0  0  0  0  0  0  0
    5.7850   28.1300  -15.2040 H   0  0  0  0  0  0  0  0  0  0  0  0
    4.8090   28.1940  -13.7370 H   0  0  0  0  0  0  0  0  0  0  0  0
    6.8920   28.6840  -13.4460 C   0  0  0  0  0  0  0  0  0  0  0  0
    7.6200   29.3760  -13.8730 H   0  0  0  0  0  0  0  0  0  0  0  0
    7.3110   27.6780  -13.4820 H   0  0  0  0  0  0  0  0  0  0  0  0
    6.6150   29.0510  -11.9810 C   0  0  0  0  0  0  0  0  0  0  0  0
    5.8460   28.3820  -11.5940 H   0  0  0  0  0  0  0  0  0  0  0  0
    6.2490   30.0750  -11.9140 H   0  0  0  0  0  0  0  0  0  0  0  0
    7.8750   28.9190  -11.1170 C   0  0  0  0  0  0  0  0  0  0  0  0
    8.5690   29.7210  -11.3720 H   0  0  0  0  0  0  0  0  0  0  0  0
    8.3580   27.9680  -11.3280 H   0  0  0  0  0  0  0  0  0  0  0  0
    7.5130   28.9990   -9.6240 C   0  0  0  0  0  0  0  0  0  0  0  0
    6.7630   28.2450   -9.3800 H   0  0  0  0  0  0  0  0  0  0  0  0
    7.0860   29.9840   -9.4270 H   0  0  0  0  0  0  0  0  0  0  0  0
    8.7310   28.8070   -8.7120 C   0  0  0  0  0  0  0  0  0  0  0  0
    8.4640   29.1490   -7.7120 H   0  0  0  0  0  0  0  0  0  0  0  0
    9.5340   29.4350   -9.0840 H   0  0  0  0  0  0  0  0  0  0  0  0
    9.2200   27.3540   -8.6070 C   0  0  0  0  0  0  0  0  0  0  0  0
    9.3260   26.9210   -9.6010 H   0  0  0  0  0  0  0  0  0  0  0  0
    8.4850   26.7740   -8.0460 H   0  0  0  0  0  0  0  0  0  0  0  0
   10.5840   27.2790   -7.9030 C   0  0  0  0  0  0  0  0  0  0  0  0
   10.5400   27.8260   -6.9600 H   0  0  0  0  0  0  0  0  0  0  0  0
   11.3320   27.7430   -8.5480 H   0  0  0  0  0  0  0  0  0  0  0  0
   10.9870   25.8220   -7.6260 C   0  0  0  0  0  0  0  0  0  0  0  0
   10.7680   25.2210   -8.5100 H   0  0  0  0  0  0  0  0  0  0  0  0
   10.3860   25.4360   -6.8020 H   0  0  0  0  0  0  0  0  0  0  0  0
   12.4800   25.6490   -7.2950 C   0  0  0  0  0  0  0  0  0  0  0  0
   13.0700   25.9970   -8.1420 H   0  0  0  0  0  0  0  0  0  0  0  0
   12.6710   24.5850   -7.1620 H   0  0  0  0  0  0  0  0  0  0  0  0
   12.9440   26.3890   -6.0330 C   0  0  0  0  0  0  0  0  0  0  0  0
   12.3280   26.0790   -5.1870 H   0  0  0  0  0  0  0  0  0  0  0  0
   12.8210   27.4640   -6.1730 H   0  0  0  0  0  0  0  0  0  0  0  0
   14.4120   26.0800   -5.7250 C   0  0  0  0  0  0  0  0  0  0  0  0
   15.2570   26.9640   -5.9900 O   0  0  0  0  0  0  0  0  0  0  0  0
   14.6670   24.9670   -5.2140 O   0  5  0  0  0  0  0  0  0  0  0  0
  1  2  1  0  0  0  0
  1  3  1  0  0  0  0
  1  4  1  0  0  0  0
  1  5  1  0  0  0  0
  5  6  1  0  0  0  0
  5  7  1  0  0  0  0
  5  8  1  0  0  0  0
  8  9  1  0  0  0  0
  8 10  1  0  0  0  0
  8 11  1  0  0  0  0
 11 12  1  0  0  0  0
 11 13  1  0  0  0  0
 11 14  1  0  0  0  0
 14 15  1  0  0  0  0
 14 16  1  0  0  0  0
 14 17  1  0  0  0  0
 17 18  1  0  0  0  0
 17 19  1  0  0  0  0
 17 20  1  0  0  0  0
 20 21  1  0  0  0  0
 20 22  1  0  0  0  0
 20 23  1  0  0  0  0
 23 24  1  0  0  0  0
 23 25  1  0  0  0  0
 23 26  1  0  0  0  0
 26 27  1  0  0  0  0
 26 28  1  0  0  0  0
 26 29  1  0  0  0  0
 29 30  1  0  0  0  0
 29 31  1  0  0  0  0
 29 32  1  0  0  0  0
 32 33  1  0  0  0  0
 32 34  1  0  0  0  0
 32 35  1  0  0  0  0
 35 36  1  0  0  0  0
 35 37  1  0  0  0  0
 35 38  1  0  0  0  0
 38 39  1  0  0  0  0
 38 40  1  0  0  0  0
 38 41  1  0  0  0  0
 41 42  1  0  0  0  0
 41 43  1  0  0  0  0
 41 44  1  0  0  0  0
 44 45  1  0  0  0  0
 44 46  1  0  0  0  0
 44 47  1  0  0  0  0
 47 48  2  0  0  0  0
 47 49  1  0  0  0  0
M  CHG  1  49  -1
M  END
>  <rseq>
1

>  <mseq>
4

>  <S>
-6.1490741

>  <rmsd_refine>
1.7024039

>  <E_conf>
-62.944767

>  <E_place>
-59.87941

>  <E_score1>
-4.1278601

>  <E_refine>
-31.965172

>  <E_score2>
-6.1490741

$$$$
Palmitic acid
  MOE2015           3D

 49 48  0  0  0  0  0  0  0  0999 V2000
    2.1130   30.4530  -15.9830 C   0  0  0  0  0  0  0  0  0  0  0  0
    1.8320   31.0730  -16.8340 H   0  0  0  0  0  0  0  0  0  0  0  0
    1.4480   30.6740  -15.1470 H   0  0  0  0  0  0  0  0  0  0  0  0
    2.0140   29.4020  -16.2580 H   0  0  0  0  0  0  0  0  0  0  0  0
    3.5610   30.7540  -15.5900 C   0  0  0  0  0  0  0  0  0  0  0  0
    3.6480   31.8140  -15.3500 H   0  0  0  0  0  0  0  0  0  0  0  0
    4.2080   30.5350  -16.4400 H   0  0  0  0  0  0  0  0  0  0  0  0
    4.0090   29.9160  -14.3810 C   0  0  0  0  0  0  0  0  0  0  0  0
    3.9260   28.8550  -14.6200 H   0  0  0  0  0  0  0  0  0  0  0  0
    3.3700   30.1420  -13.5260 H   0  0  0  0  0  0  0  0  0  0  0  0
    5.4640   30.2470  -14.0310 C   0  0  0  0  0  0  0  0  0  0  0  0
    5.5390   31.3140  -13.8370 H   0  0  0  0  0  0  0  0  0  0  0  0
    6.0890   30.0220  -14.8950 H   0  0  0  0  0  0  0  0  0  0  0  0
    5.9960   29.4600  -12.8180 C   0  0  0  0  0  0  0  0  0  0  0  0
    6.0410   28.4010  -13.0770 H   0  0  0  0  0  0  0  0  0  0  0  0
    5.3360   29.5940  -11.9600 H   0  0  0  0  0  0  0  0  0  0  0  0
    7.4010   29.9720  -12.4700 C   0  0  0  0  0  0  0  0  0  0  0  0
    7.3220   30.9340  -11.9670 H   0  0  0  0  0  0  0  0  0  0  0  0
    7.9410   30.1220  -13.4050 H   0  0  0  0  0  0  0  0  0  0  0  0
    8.2640   29.0360  -11.6180 C   0  0  0  0  0  0  0  0  0  0  0  0
    9.2780   29.4350  -11.6460 H   0  0  0  0  0  0  0  0  0  0  0  0
    8.2790   28.0540  -12.0910 H   0  0  0  0  0  0  0  0  0  0  0  0
    7.8750   28.8690  -10.1440 C   0  0  0  0  0  0  0  0  0  0  0  0
    6.9150   28.3580  -10.0680 H   0  0  0  0  0  0  0  0  0  0  0  0
    7.8090   29.8470   -9.6650 H   0  0  0  0  0  0  0  0  0  0  0  0
    8.9820   28.0390   -9.4720 C   0  0  0  0  0  0  0  0  0  0  0  0
    9.9130   28.5990   -9.5380 H   0  0  0  0  0  0  0  0  0  0  0  0
    9.1100   27.1040  -10.0170 H   0  0  0  0  0  0  0  0  0  0  0  0
    8.7000   27.7090   -8.0000 C   0  0  0  0  0  0  0  0  0  0  0  0
    7.7240   27.2280   -7.9300 H   0  0  0  0  0  0  0  0  0  0  0  0
    8.6700   28.6320   -7.4210 H   0  0  0  0  0  0  0  0  0  0  0  0
    9.7510   26.7560   -7.4000 C   0  0  0  0  0  0  0  0  0  0  0  0
    9.7820   25.8440   -7.9970 H   0  0  0  0  0  0  0  0  0  0  0  0
    9.4300   26.4880   -6.3930 H   0  0  0  0  0  0  0  0  0  0  0  0
   11.1680   27.3540   -7.3180 C   0  0  0  0  0  0  0  0  0  0  0  0
   11.1420   28.2470   -6.6930 H   0  0  0  0  0  0  0  0  0  0  0  0
   11.5110   27.6310   -8.3140 H   0  0  0  0  0  0  0  0  0  0  0  0
   12.1700   26.3470   -6.7330 C   0  0  0  0  0  0  0  0  0  0  0  0
   12.2470   25.4930   -7.4080 H   0  0  0  0  0  0  0  0  0  0  0  0
   11.8140   26.0000   -5.7620 H   0  0  0  0  0  0  0  0  0  0  0  0
   13.5560   26.9880   -6.5610 C   0  0  0  0  0  0  0  0  0  0  0  0
   13.4950   27.7640   -5.7960 H   0  0  0  0  0  0  0  0  0  0  0  0
   13.8520   27.4500   -7.5020 H   0  0  0  0  0  0  0  0  0  0  0  0
   14.6120   25.9490   -6.1460 C   0  0  0  0  0  0  0  0  0  0  0  0
   14.7060   25.1990   -6.9320 H   0  0  0  0  0  0  0  0  0  0  0  0
   14.2720   25.4470   -5.2380 H   0  0  0  0  0  0  0  0  0  0  0  0
   15.9900   26.5700   -5.8870 C   0  0  0  0  0  0  0  0  0  0  0  0
   16.6590   26.0960   -4.9410 O   0  0  0  0  0  0  0  0  0  0  0  0
   16.3650   27.5040   -6.6310 O   0  5  0  0  0  0  0  0  0  0  0  0
  1  2  1  0  0  0  0
  1  3  1  0  0  0  0
  1  4  1  0  0  0  0
  1  5  1  0  0  0  0
  5  6  1  0  0  0  0
  5  7  1  0  0  0  0
  5  8  1  0  0  0  0
  8  9  1  0  0  0  0
  8 10  1  0  0  0  0
  8 11  1  0  0  0  0
 11 12  1  0  0  0  0
 11 13  1  0  0  0  0
 11 14  1  0  0  0  0
 14 15  1  0  0  0  0
 14 16  1  0  0  0  0
 14 17  1  0  0  0  0
 17 18  1  0  0  0  0
 17 19  1  0  0  0  0
 17 20  1  0  0  0  0
 20 21  1  0  0  0  0
 20 22  1  0  0  0  0
 20 23  1  0  0  0  0
 23 24  1  0  0  0  0
 23 25  1  0  0  0  0
 23 26  1  0  0  0  0
 26 27  1  0  0  0  0
 26 28  1  0  0  0  0
 26 29  1  0  0  0  0
 29 30  1  0  0  0  0
 29 31  1  0  0  0  0
 29 32  1  0  0  0  0
 32 33  1  0  0  0  0
 32 34  1  0  0  0  0
 32 35  1  0  0  0  0
 35 36  1  0  0  0  0
 35 37  1  0  0  0  0
 35 38  1  0  0  0  0
 38 39  1  0  0  0  0
 38 40  1  0  0  0  0
 38 41  1  0  0  0  0
 41 42  1  0  0  0  0
 41 43  1  0  0  0  0
 41 44  1  0  0  0  0
 44 45  1  0  0  0  0
 44 46  1  0  0  0  0
 44 47  1  0  0  0  0
 47 48  2  0  0  0  0
 47 49  1  0  0  0  0
M  CHG  1  49  -1
M  END
>  <rseq>
1

>  <mseq>
4

>  <S>
-6.1098857

>  <rmsd_refine>
2.0116291

>  <E_conf>
-62.619698

>  <E_place>
-63.23629

>  <E_score1>
-3.7342336

>  <E_refine>
-31.916494

>  <E_score2>
-6.1098857

$$$$
Palmitic acid
  MOE2015           3D

 49 48  0  0  0  0  0  0  0  0999 V2000
    1.5120   31.9030  -16.5680 C   0  0  0  0  0  0  0  0  0  0  0  0
    1.2990   32.1670  -17.6020 H   0  0  0  0  0  0  0  0  0  0  0  0
    2.4790   32.3180  -16.2830 H   0  0  0  0  0  0  0  0  0  0  0  0
    0.7270   32.3320  -15.9470 H   0  0  0  0  0  0  0  0  0  0  0  0
    1.5140   30.3770  -16.4140 C   0  0  0  0  0  0  0  0  0  0  0  0
    2.2760   29.9440  -17.0610 H   0  0  0  0  0  0  0  0  0  0  0  0
    0.5430   30.0120  -16.7520 H   0  0  0  0  0  0  0  0  0  0  0  0
    1.7270   29.9080  -14.9610 C   0  0  0  0  0  0  0  0  0  0  0  0
    1.0450   29.0750  -14.7820 H   0  0  0  0  0  0  0  0  0  0  0  0
    1.4510   30.7010  -14.2660 H   0  0  0  0  0  0  0  0  0  0  0  0
    3.1430   29.4050  -14.6310 C   0  0  0  0  0  0  0  0  0  0  0  0
    3.3800   28.5680  -15.2900 H   0  0  0  0  0  0  0  0  0  0  0  0
    3.1260   29.0310  -13.6070 H   0  0  0  0  0  0  0  0  0  0  0  0
    4.2480   30.4670  -14.7560 C   0  0  0  0  0  0  0  0  0  0  0  0
    4.0200   31.3140  -14.1100 H   0  0  0  0  0  0  0  0  0  0  0  0
    4.2800   30.8220  -15.7870 H   0  0  0  0  0  0  0  0  0  0  0  0
    5.6440   29.9200  -14.4080 C   0  0  0  0  0  0  0  0  0  0  0  0
    6.3760   30.6810  -14.6800 H   0  0  0  0  0  0  0  0  0  0  0  0
    5.8300   29.0320  -15.0120 H   0  0  0  0  0  0  0  0  0  0  0  0
    5.8440   29.5530  -12.9270 C   0  0  0  0  0  0  0  0  0  0  0  0
    5.2070   28.7080  -12.6650 H   0  0  0  0  0  0  0  0  0  0  0  0
    5.5670   30.4000  -12.3060 H   0  0  0  0  0  0  0  0  0  0  0  0
    7.3070   29.1770  -12.6460 C   0  0  0  0  0  0  0  0  0  0  0  0
    7.9630   29.9620  -13.0220 H   0  0  0  0  0  0  0  0  0  0  0  0
    7.5300   28.2490  -13.1740 H   0  0  0  0  0  0  0  0  0  0  0  0
    7.5790   28.9890  -11.1440 C   0  0  0  0  0  0  0  0  0  0  0  0
    6.8350   28.3080  -10.7310 H   0  0  0  0  0  0  0  0  0  0  0  0
    7.4870   29.9500  -10.6370 H   0  0  0  0  0  0  0  0  0  0  0  0
    8.9840   28.4140  -10.8980 C   0  0  0  0  0  0  0  0  0  0  0  0
    9.7300   29.1300  -11.2400 H   0  0  0  0  0  0  0  0  0  0  0  0
    9.1070   27.5020  -11.4800 H   0  0  0  0  0  0  0  0  0  0  0  0
    9.2300   28.0970   -9.4150 C   0  0  0  0  0  0  0  0  0  0  0  0
    8.3980   27.5090   -9.0240 H   0  0  0  0  0  0  0  0  0  0  0  0
    9.2890   29.0340   -8.8590 H   0  0  0  0  0  0  0  0  0  0  0  0
   10.5290   27.2960   -9.2310 C   0  0  0  0  0  0  0  0  0  0  0  0
   11.3440   27.8070   -9.7430 H   0  0  0  0  0  0  0  0  0  0  0  0
   10.4040   26.3100   -9.6800 H   0  0  0  0  0  0  0  0  0  0  0  0
   10.8890   27.1350   -7.7460 C   0  0  0  0  0  0  0  0  0  0  0  0
   10.0710   26.6320   -7.2280 H   0  0  0  0  0  0  0  0  0  0  0  0
   11.0290   28.1220   -7.3030 H   0  0  0  0  0  0  0  0  0  0  0  0
   12.1770   26.3140   -7.5730 C   0  0  0  0  0  0  0  0  0  0  0  0
   12.9760   26.7730   -8.1570 H   0  0  0  0  0  0  0  0  0  0  0  0
   12.0050   25.3020   -7.9360 H   0  0  0  0  0  0  0  0  0  0  0  0
   12.6100   26.2440   -6.1040 C   0  0  0  0  0  0  0  0  0  0  0  0
   11.8080   25.7980   -5.5130 H   0  0  0  0  0  0  0  0  0  0  0  0
   12.7860   27.2550   -5.7310 H   0  0  0  0  0  0  0  0  0  0  0  0
   13.8840   25.4110   -5.9350 C   0  0  0  0  0  0  0  0  0  0  0  0
   14.9730   26.0260   -5.8950 O   0  0  0  0  0  0  0  0  0  0  0  0
   13.7490   24.1720   -5.8270 O   0  5  0  0  0  0  0  0  0  0  0  0
  1  2  1  0  0  0  0
  1  3  1  0  0  0  0
  1  4  1  0  0  0  0
  1  5  1  0  0  0  0
  5  6  1  0  0  0  0
  5  7  1  0  0  0  0
  5  8  1  0  0  0  0
  8  9  1  0  0  0  0
  8 10  1  0  0  0  0
  8 11  1  0  0  0  0
 11 12  1  0  0  0  0
 11 13  1  0  0  0  0
 11 14  1  0  0  0  0
 14 15  1  0  0  0  0
 14 16  1  0  0  0  0
 14 17  1  0  0  0  0
 17 18  1  0  0  0  0
 17 19  1  0  0  0  0
 17 20  1  0  0  0  0
 20 21  1  0  0  0  0
 20 22  1  0  0  0  0
 20 23  1  0  0  0  0
 23 24  1  0  0  0  0
 23 25  1  0  0  0  0
 23 26  1  0  0  0  0
 26 27  1  0  0  0  0
 26 28  1  0  0  0  0
 26 29  1  0  0  0  0
 29 30  1  0  0  0  0
 29 31  1  0  0  0  0
 29 32  1  0  0  0  0
 32 33  1  0  0  0  0
 32 34  1  0  0  0  0
 32 35  1  0  0  0  0
 35 36  1  0  0  0  0
 35 37  1  0  0  0  0
 35 38  1  0  0  0  0
 38 39  1  0  0  0  0
 38 40  1  0  0  0  0
 38 41  1  0  0  0  0
 41 42  1  0  0  0  0
 41 43  1  0  0  0  0
 41 44  1  0  0  0  0
 44 45  1  0  0  0  0
 44 46  1  0  0  0  0
 44 47  1  0  0  0  0
 47 48  2  0  0  0  0
 47 49  1  0  0  0  0
M  CHG  1  49  -1
M  END
>  <rseq>
1

>  <mseq>
4

>  <S>
-6.0232477

>  <rmsd_refine>
1.675759

>  <E_conf>
-62.19445

>  <E_place>
-68.055801

>  <E_score1>
-2.429688

>  <E_refine>
-31.348858

>  <E_score2>
-6.0232477

$$$$
Palmitic acid
  MOE2015           3D

 49 48  0  0  0  0  0  0  0  0999 V2000
   13.3680   24.7920   -4.7940 C   0  0  0  0  0  0  0  0  0  0  0  0
   13.1260   23.7560   -4.5560 H   0  0  0  0  0  0  0  0  0  0  0  0
   13.0120   25.4370   -3.9890 H   0  0  0  0  0  0  0  0  0  0  0  0
   14.4500   24.8910   -4.8880 H   0  0  0  0  0  0  0  0  0  0  0  0
   12.6930   25.1830   -6.1120 C   0  0  0  0  0  0  0  0  0  0  0  0
   11.6150   25.0520   -6.0080 H   0  0  0  0  0  0  0  0  0  0  0  0
   13.0550   24.5200   -6.8970 H   0  0  0  0  0  0  0  0  0  0  0  0
   13.0080   26.6390   -6.4870 C   0  0  0  0  0  0  0  0  0  0  0  0
   14.0920   26.7670   -6.4920 H   0  0  0  0  0  0  0  0  0  0  0  0
   12.5870   27.3150   -5.7410 H   0  0  0  0  0  0  0  0  0  0  0  0
   12.4830   27.0180   -7.8790 C   0  0  0  0  0  0  0  0  0  0  0  0
   12.7890   26.2510   -8.5850 H   0  0  0  0  0  0  0  0  0  0  0  0
   12.9630   27.9510   -8.1760 H   0  0  0  0  0  0  0  0  0  0  0  0
   10.9590   27.2150   -7.9560 C   0  0  0  0  0  0  0  0  0  0  0  0
   10.6930   28.0850   -7.3550 H   0  0  0  0  0  0  0  0  0  0  0  0
   10.4400   26.3420   -7.5590 H   0  0  0  0  0  0  0  0  0  0  0  0
   10.5180   27.4310   -9.4140 C   0  0  0  0  0  0  0  0  0  0  0  0
   10.5030   26.4680   -9.9270 H   0  0  0  0  0  0  0  0  0  0  0  0
   11.2430   28.0620   -9.9220 H   0  0  0  0  0  0  0  0  0  0  0  0
    9.1340   28.0880   -9.5200 C   0  0  0  0  0  0  0  0  0  0  0  0
    9.1040   28.9880   -8.9030 H   0  0  0  0  0  0  0  0  0  0  0  0
    8.3760   27.3880   -9.1660 H   0  0  0  0  0  0  0  0  0  0  0  0
    8.8500   28.4790  -10.9780 C   0  0  0  0  0  0  0  0  0  0  0  0
    8.9960   27.6060  -11.6110 H   0  0  0  0  0  0  0  0  0  0  0  0
    9.5640   29.2410  -11.2890 H   0  0  0  0  0  0  0  0  0  0  0  0
    7.4260   29.0170  -11.1790 C   0  0  0  0  0  0  0  0  0  0  0  0
    7.2880   29.9190  -10.5800 H   0  0  0  0  0  0  0  0  0  0  0  0
    6.7080   28.2690  -10.8470 H   0  0  0  0  0  0  0  0  0  0  0  0
    7.1730   29.3470  -12.6580 C   0  0  0  0  0  0  0  0  0  0  0  0
    7.5010   28.5130  -13.2800 H   0  0  0  0  0  0  0  0  0  0  0  0
    7.7550   30.2300  -12.9220 H   0  0  0  0  0  0  0  0  0  0  0  0
    5.6860   29.6030  -12.9440 C   0  0  0  0  0  0  0  0  0  0  0  0
    5.2870   30.3040  -12.2160 H   0  0  0  0  0  0  0  0  0  0  0  0
    5.1490   28.6600  -12.8480 H   0  0  0  0  0  0  0  0  0  0  0  0
    5.5010   30.1760  -14.3590 C   0  0  0  0  0  0  0  0  0  0  0  0
    5.9170   29.4800  -15.0780 H   0  0  0  0  0  0  0  0  0  0  0  0
    6.0670   31.1060  -14.4320 H   0  0  0  0  0  0  0  0  0  0  0  0
    4.0430   30.4840  -14.7370 C   0  0  0  0  0  0  0  0  0  0  0  0
    4.0370   30.9850  -15.7070 H   0  0  0  0  0  0  0  0  0  0  0  0
    3.6550   31.1950  -14.0110 H   0  0  0  0  0  0  0  0  0  0  0  0
    3.0720   29.2890  -14.7950 C   0  0  0  0  0  0  0  0  0  0  0  0
    2.0620   29.7020  -14.8170 H   0  0  0  0  0  0  0  0  0  0  0  0
    3.1460   28.6900  -13.8890 H   0  0  0  0  0  0  0  0  0  0  0  0
    3.2110   28.3910  -16.0360 C   0  0  0  0  0  0  0  0  0  0  0  0
    3.1810   29.0230  -16.9250 H   0  0  0  0  0  0  0  0  0  0  0  0
    2.3480   27.7250  -16.0760 H   0  0  0  0  0  0  0  0  0  0  0  0
    4.4750   27.5270  -16.0620 C   0  0  0  0  0  0  0  0  0  0  0  0
    4.6980   26.7920  -15.0750 O   0  0  0  0  0  0  0  0  0  0  0  0
    5.1950   27.6110  -17.0800 O   0  5  0  0  0  0  0  0  0  0  0  0
  1  2  1  0  0  0  0
  1  3  1  0  0  0  0
  1  4  1  0  0  0  0
  1  5  1  0  0  0  0
  5  6  1  0  0  0  0
  5  7  1  0  0  0  0
  5  8  1  0  0  0  0
  8  9  1  0  0  0  0
  8 10  1  0  0  0  0
  8 11  1  0  0  0  0
 11 12  1  0  0  0  0
 11 13  1  0  0  0  0
 11 14  1  0  0  0  0
 14 15  1  0  0  0  0
 14 16  1  0  0  0  0
 14 17  1  0  0  0  0
 17 18  1  0  0  0  0
 17 19  1  0  0  0  0
 17 20  1  0  0  0  0
 20 21  1  0  0  0  0
 20 22  1  0  0  0  0
 20 23  1  0  0  0  0
 23 24  1  0  0  0  0
 23 25  1  0  0  0  0
 23 26  1  0  0  0  0
 26 27  1  0  0  0  0
 26 28  1  0  0  0  0
 26 29  1  0  0  0  0
 29 30  1  0  0  0  0
 29 31  1  0  0  0  0
 29 32  1  0  0  0  0
 32 33  1  0  0  0  0
 32 34  1  0  0  0  0
 32 35  1  0  0  0  0
 35 36  1  0  0  0  0
 35 37  1  0  0  0  0
 35 38  1  0  0  0  0
 38 39  1  0  0  0  0
 38 40  1  0  0  0  0
 38 41  1  0  0  0  0
 41 42  1  0  0  0  0
 41 43  1  0  0  0  0
 41 44  1  0  0  0  0
 44 45  1  0  0  0  0
 44 46  1  0  0  0  0
 44 47  1  0  0  0  0
 47 48  2  0  0  0  0
 47 49  1  0  0  0  0
M  CHG  1  49  -1
M  END
>  <rseq>
1

>  <mseq>
4

>  <S>
-6.0156479

>  <rmsd_refine>
1.1402829

>  <E_conf>
-61.782932

>  <E_place>
-77.609123

>  <E_score1>
-3.1240461

>  <E_refine>
-28.131596

>  <E_score2>
-6.0156479

$$$$
Nimbin
  MOE2015           3D

 75 79  0  0  1  0  0  0  0  0999 V2000
    3.1780   24.6910   -9.4310 O   0  0  0  0  0  0  0  0  0  0  0  0
    3.5200   25.0260   -8.3200 C   0  0  0  0  0  0  0  0  0  0  0  0
    4.1320   24.0320   -7.4710 C   0  0  0  0  0  0  0  0  0  0  0  0
    4.1130   23.0330   -7.8250 H   0  0  0  0  0  0  0  0  0  0  0  0
    4.7100   24.3270   -6.2950 C   0  0  0  0  0  0  0  0  0  0  0  0
    5.1350   23.5580   -5.7010 H   0  0  0  0  0  0  0  0  0  0  0  0
    4.8290   25.7310   -5.7290 C   0  0  1  0  0  0  0  0  0  0  0  0
    6.3210   25.9140   -5.4020 C   0  0  0  0  0  0  0  0  0  0  0  0
    6.7560   26.3040   -4.3160 O   0  0  0  0  0  0  0  0  0  0  0  0
    7.1940   25.6100   -6.3900 O   0  0  0  0  0  0  0  0  0  0  0  0
    8.6310   25.6980   -6.2200 C   0  0  0  0  0  0  0  0  0  0  0  0
    9.0990   25.3550   -7.1420 H   0  0  0  0  0  0  0  0  0  0  0  0
    8.9190   25.0590   -5.3850 H   0  0  0  0  0  0  0  0  0  0  0  0
    8.8880   26.7390   -6.0230 H   0  0  0  0  0  0  0  0  0  0  0  0
    4.4260   26.8370   -6.8110 C   0  0  1  0  0  0  0  0  0  0  0  0
    5.3110   26.9910   -7.4250 H   0  0  0  0  0  0  0  0  0  0  0  0
    3.2700   26.4570   -7.8090 C   0  0  1  0  0  0  0  0  0  0  0  0
    3.3120   27.4660   -9.0470 C   0  0  2  0  0  0  0  0  0  0  0  0
    4.0400   27.0630   -9.7440 H   0  0  0  0  0  0  0  0  0  0  0  0
    3.8290   28.9420   -8.6940 C   0  0  2  0  0  0  0  0  0  0  0  0
    5.2970   29.1410   -9.0840 C   0  0  0  0  0  0  0  0  0  0  0  0
    5.9730   29.2330  -10.2300 C   0  0  0  0  0  0  0  0  0  0  0  0
    5.4900   28.9580  -11.6370 C   0  0  0  0  0  0  0  0  0  0  0  0
    5.2880   29.9120  -12.1030 H   0  0  0  0  0  0  0  0  0  0  0  0
    6.2800   28.4270  -12.1500 H   0  0  0  0  0  0  0  0  0  0  0  0
    4.6040   28.3550  -11.5760 H   0  0  0  0  0  0  0  0  0  0  0  0
    7.3220   29.8670  -10.0030 C   0  0  2  0  0  0  0  0  0  0  0  0
    7.5600   30.6120  -10.7510 H   0  0  0  0  0  0  0  0  0  0  0  0
    8.3820   28.7790   -9.9440 C   0  0  0  0  0  0  0  0  0  0  0  0
    9.4750   28.6830  -10.8100 C   0  0  0  0  0  0  0  0  0  0  0  0
    9.7020   29.3430  -11.6030 H   0  0  0  0  0  0  0  0  0  0  0  0
   10.1870   27.5950  -10.4440 C   0  0  0  0  0  0  0  0  0  0  0  0
   11.0750   27.1950  -10.8570 H   0  0  0  0  0  0  0  0  0  0  0  0
    9.5920   26.9990   -9.3870 O   0  0  0  0  0  0  0  0  0  0  0  0
    8.4850   27.7260   -9.0960 C   0  0  0  0  0  0  0  0  0  0  0  0
    7.8560   27.4210   -8.3050 H   0  0  0  0  0  0  0  0  0  0  0  0
    7.1250   30.5240   -8.6010 C   0  0  0  0  0  0  0  0  0  0  0  0
    6.6900   31.5180   -8.7190 H   0  0  0  0  0  0  0  0  0  0  0  0
    8.0600   30.5790   -8.0470 H   0  0  0  0  0  0  0  0  0  0  0  0
    6.1050   29.5900   -7.9210 C   0  0  1  0  0  0  0  0  0  0  0  0
    6.5820   28.7780   -7.3960 H   0  0  0  0  0  0  0  0  0  0  0  0
    5.0950   30.2060   -7.1410 O   0  0  0  0  0  0  0  0  0  0  0  0
    3.8750   29.3710   -7.1820 C   0  0  2  0  0  0  0  0  0  0  0  0
    2.9950   29.9390   -6.8790 H   0  0  0  0  0  0  0  0  0  0  0  0
    4.0600   28.2010   -6.1680 C   0  0  2  0  0  0  0  0  0  0  0  0
    3.1200   28.0830   -5.6320 H   0  0  0  0  0  0  0  0  0  0  0  0
    5.1120   28.5720   -5.2190 O   0  0  0  0  0  0  0  0  0  0  0  0
    4.8840   29.3700   -4.1610 C   0  0  0  0  0  0  0  0  0  0  0  0
    3.7530   29.7820   -3.9020 O   0  0  0  0  0  0  0  0  0  0  0  0
    6.0740   29.7430   -3.2930 C   0  0  0  0  0  0  0  0  0  0  0  0
    6.7530   30.3640   -3.8750 H   0  0  0  0  0  0  0  0  0  0  0  0
    6.5970   28.8390   -2.9820 H   0  0  0  0  0  0  0  0  0  0  0  0
    5.7400   30.2930   -2.4130 H   0  0  0  0  0  0  0  0  0  0  0  0
    3.0580   30.0820   -9.4140 C   0  0  0  0  0  0  0  0  0  0  0  0
    3.5060   31.0350   -9.1310 H   0  0  0  0  0  0  0  0  0  0  0  0
    3.1450   29.9780  -10.4920 H   0  0  0  0  0  0  0  0  0  0  0  0
    2.0160   30.0940   -9.1000 H   0  0  0  0  0  0  0  0  0  0  0  0
    1.9510   27.4310   -9.8310 C   0  0  0  0  0  0  0  0  0  0  0  0
    1.2200   28.1080   -9.3920 H   0  0  0  0  0  0  0  0  0  0  0  0
    1.5090   26.4410   -9.7700 H   0  0  0  0  0  0  0  0  0  0  0  0
    2.0580   27.6620  -11.3380 C   0  0  0  0  0  0  0  0  0  0  0  0
    1.5220   28.6310  -11.8760 O   0  0  0  0  0  0  0  0  0  0  0  0
    2.6970   26.7270  -12.0660 O   0  0  0  0  0  0  0  0  0  0  0  0
    2.8310   26.8230  -13.5050 C   0  0  0  0  0  0  0  0  0  0  0  0
    3.3510   27.7520  -13.7410 H   0  0  0  0  0  0  0  0  0  0  0  0
    1.8330   26.8130  -13.9440 H   0  0  0  0  0  0  0  0  0  0  0  0
    3.4090   25.9640  -13.8450 H   0  0  0  0  0  0  0  0  0  0  0  0
    1.8640   26.4700   -7.1230 C   0  0  0  0  0  0  0  0  0  0  0  0
    1.1390   25.9400   -7.7390 H   0  0  0  0  0  0  0  0  0  0  0  0
    1.8960   25.9480   -6.1790 H   0  0  0  0  0  0  0  0  0  0  0  0
    1.5250   27.4950   -6.9740 H   0  0  0  0  0  0  0  0  0  0  0  0
    4.0140   25.7240   -4.4010 C   0  0  0  0  0  0  0  0  0  0  0  0
    4.0010   26.7050   -3.9330 H   0  0  0  0  0  0  0  0  0  0  0  0
    4.4960   25.0240   -3.7160 H   0  0  0  0  0  0  0  0  0  0  0  0
    3.0020   25.3680   -4.5620 H   0  0  0  0  0  0  0  0  0  0  0  0
  1  2  2  0  0  0  0
  2  3  1  0  0  0  0
  2 17  1  0  0  0  0
  3  4  1  0  0  0  0
  3  5  2  0  0  0  0
  5  6  1  0  0  0  0
  5  7  1  0  0  0  0
  7  8  1  0  0  0  0
  7 15  1  0  0  0  0
  7 72  1  0  0  0  0
  8  9  2  0  0  0  0
  8 10  1  0  0  0  0
 10 11  1  0  0  0  0
 11 12  1  0  0  0  0
 11 13  1  0  0  0  0
 11 14  1  0  0  0  0
 15 16  1  0  0  0  0
 15 17  1  0  0  0  0
 15 45  1  0  0  0  0
 17 18  1  0  0  0  0
 17 68  1  0  0  0  0
 18 19  1  0  0  0  0
 18 20  1  0  0  0  0
 18 58  1  0  0  0  0
 20 21  1  0  0  0  0
 20 43  1  0  0  0  0
 20 54  1  0  0  0  0
 21 22  2  0  0  0  0
 21 40  1  0  0  0  0
 22 23  1  0  0  0  0
 22 27  1  0  0  0  0
 23 24  1  0  0  0  0
 23 25  1  0  0  0  0
 23 26  1  0  0  0  0
 27 28  1  0  0  0  0
 27 29  1  0  0  0  0
 27 37  1  0  0  0  0
 29 30  1  0  0  0  0
 29 35  2  0  0  0  0
 30 31  1  0  0  0  0
 30 32  2  0  0  0  0
 32 33  1  0  0  0  0
 32 34  1  0  0  0  0
 34 35  1  0  0  0  0
 35 36  1  0  0  0  0
 37 38  1  0  0  0  0
 37 39  1  0  0  0  0
 37 40  1  0  0  0  0
 40 41  1  0  0  0  0
 40 42  1  0  0  0  0
 42 43  1  0  0  0  0
 43 44  1  0  0  0  0
 43 45  1  0  0  0  0
 45 46  1  0  0  0  0
 45 47  1  0  0  0  0
 47 48  1  0  0  0  0
 48 49  2  0  0  0  0
 48 50  1  0  0  0  0
 50 51  1  0  0  0  0
 50 52  1  0  0  0  0
 50 53  1  0  0  0  0
 54 55  1  0  0  0  0
 54 56  1  0  0  0  0
 54 57  1  0  0  0  0
 58 59  1  0  0  0  0
 58 60  1  0  0  0  0
 58 61  1  0  0  0  0
 61 62  2  0  0  0  0
 61 63  1  0  0  0  0
 63 64  1  0  0  0  0
 64 65  1  0  0  0  0
 64 66  1  0  0  0  0
 64 67  1  0  0  0  0
 68 69  1  0  0  0  0
 68 70  1  0  0  0  0
 68 71  1  0  0  0  0
 72 73  1  0  0  0  0
 72 74  1  0  0  0  0
 72 75  1  0  0  0  0
M  END
>  <rseq>
1

>  <mseq>
6

>  <S>
-5.4557257

>  <rmsd_refine>
2.4491885

>  <E_conf>
98.281998

>  <E_place>
-21.705713

>  <E_score1>
111.76465

>  <E_refine>
-23.398262

>  <E_score2>
-5.4557257

$$$$
Nimbin
  MOE2015           3D

 75 79  0  0  1  0  0  0  0  0999 V2000
    0.8680   26.6090  -15.1240 O   0  0  0  0  0  0  0  0  0  0  0  0
    2.0380   26.8640  -14.9590 C   0  0  0  0  0  0  0  0  0  0  0  0
    2.8840   27.2400  -16.0830 C   0  0  0  0  0  0  0  0  0  0  0  0
    2.4910   27.0610  -17.0510 H   0  0  0  0  0  0  0  0  0  0  0  0
    4.1230   27.7640  -15.9250 C   0  0  0  0  0  0  0  0  0  0  0  0
    4.7280   27.9790  -16.7690 H   0  0  0  0  0  0  0  0  0  0  0  0
    4.7090   28.1800  -14.5670 C   0  0  1  0  0  0  0  0  0  0  0  0
    5.0390   29.6770  -14.7220 C   0  0  0  0  0  0  0  0  0  0  0  0
    6.1280   30.1840  -14.4390 O   0  0  0  0  0  0  0  0  0  0  0  0
    4.0700   30.4620  -15.2460 O   0  0  0  0  0  0  0  0  0  0  0  0
    4.2690   31.8710  -15.5090 C   0  0  0  0  0  0  0  0  0  0  0  0
    3.3270   32.2820  -15.8740 H   0  0  0  0  0  0  0  0  0  0  0  0
    5.0530   31.9700  -16.2600 H   0  0  0  0  0  0  0  0  0  0  0  0
    4.5660   32.3490  -14.5780 H   0  0  0  0  0  0  0  0  0  0  0  0
    3.5820   28.0100  -13.4690 C   0  0  1  0  0  0  0  0  0  0  0  0
    2.9080   28.8150  -13.7030 H   0  0  0  0  0  0  0  0  0  0  0  0
    2.7300   26.6920  -13.6040 C   0  0  1  0  0  0  0  0  0  0  0  0
    1.6970   26.4940  -12.3610 C   0  0  2  0  0  0  0  0  0  0  0  0
    0.7580   26.1240  -12.7580 H   0  0  0  0  0  0  0  0  0  0  0  0
    1.4400   27.8460  -11.5650 C   0  0  2  0  0  0  0  0  0  0  0  0
    0.7280   28.9370  -12.3430 C   0  0  0  0  0  0  0  0  0  0  0  0
   -0.5230   29.0810  -12.7810 C   0  0  0  0  0  0  0  0  0  0  0  0
   -1.6130   28.0350  -12.8940 C   0  0  0  0  0  0  0  0  0  0  0  0
   -2.2850   28.1850  -12.0610 H   0  0  0  0  0  0  0  0  0  0  0  0
   -2.1140   28.2030  -13.8370 H   0  0  0  0  0  0  0  0  0  0  0  0
   -1.1720   27.0530  -12.8690 H   0  0  0  0  0  0  0  0  0  0  0  0
   -0.8350   30.5510  -12.9420 C   0  0  2  0  0  0  0  0  0  0  0  0
   -1.8410   30.8050  -12.6340 H   0  0  0  0  0  0  0  0  0  0  0  0
   -0.5490   30.9810  -14.3770 C   0  0  0  0  0  0  0  0  0  0  0  0
   -0.9730   32.1710  -14.9810 C   0  0  0  0  0  0  0  0  0  0  0  0
   -1.5580   32.9350  -14.5400 H   0  0  0  0  0  0  0  0  0  0  0  0
   -0.4940   32.1700  -16.2460 C   0  0  0  0  0  0  0  0  0  0  0  0
   -0.6000   32.8900  -17.0150 H   0  0  0  0  0  0  0  0  0  0  0  0
    0.2130   31.0370  -16.4660 O   0  0  0  0  0  0  0  0  0  0  0  0
    0.1700   30.3180  -15.3170 C   0  0  0  0  0  0  0  0  0  0  0  0
    0.6640   29.3830  -15.2620 H   0  0  0  0  0  0  0  0  0  0  0  0
    0.2440   31.1520  -11.9760 C   0  0  0  0  0  0  0  0  0  0  0  0
   -0.0730   31.0120  -10.9420 H   0  0  0  0  0  0  0  0  0  0  0  0
    0.4340   32.2050  -12.1510 H   0  0  0  0  0  0  0  0  0  0  0  0
    1.4520   30.2390  -12.2740 C   0  0  1  0  0  0  0  0  0  0  0  0
    1.9310   30.5250  -13.1990 H   0  0  0  0  0  0  0  0  0  0  0  0
    2.3960   30.0090  -11.2140 O   0  0  0  0  0  0  0  0  0  0  0  0
    2.7420   28.5720  -11.0920 C   0  0  2  0  0  0  0  0  0  0  0  0
    3.0050   28.3240  -10.0630 H   0  0  0  0  0  0  0  0  0  0  0  0
    3.9650   28.2060  -11.9860 C   0  0  2  0  0  0  0  0  0  0  0  0
    4.3440   27.2510  -11.6460 H   0  0  0  0  0  0  0  0  0  0  0  0
    4.9930   29.2330  -11.8540 O   0  0  0  0  0  0  0  0  0  0  0  0
    5.8690   29.2500  -10.8300 C   0  0  0  0  0  0  0  0  0  0  0  0
    5.7080   28.5340   -9.8420 O   0  0  0  0  0  0  0  0  0  0  0  0
    7.1220   30.1090  -10.9600 C   0  0  0  0  0  0  0  0  0  0  0  0
    7.1830   30.8040  -10.1220 H   0  0  0  0  0  0  0  0  0  0  0  0
    7.0930   30.6690  -11.8930 H   0  0  0  0  0  0  0  0  0  0  0  0
    8.0010   29.4650  -10.9660 H   0  0  0  0  0  0  0  0  0  0  0  0
    0.5620   27.6600  -10.2960 C   0  0  0  0  0  0  0  0  0  0  0  0
    0.2690   28.6410   -9.9170 H   0  0  0  0  0  0  0  0  0  0  0  0
   -0.3330   27.0930  -10.5480 H   0  0  0  0  0  0  0  0  0  0  0  0
    1.1310   27.1640   -9.5120 H   0  0  0  0  0  0  0  0  0  0  0  0
    2.1450   25.3880  -11.3280 C   0  0  0  0  0  0  0  0  0  0  0  0
    2.8860   25.7890  -10.6360 H   0  0  0  0  0  0  0  0  0  0  0  0
    2.5890   24.5210  -11.8000 H   0  0  0  0  0  0  0  0  0  0  0  0
    1.0090   24.7320  -10.5370 C   0  0  0  0  0  0  0  0  0  0  0  0
    1.0980   24.5830   -9.3180 O   0  0  0  0  0  0  0  0  0  0  0  0
   -0.0640   24.2830  -11.2130 O   0  0  0  0  0  0  0  0  0  0  0  0
   -1.1830   23.6480  -10.5490 C   0  0  0  0  0  0  0  0  0  0  0  0
   -1.6060   24.3570   -9.8360 H   0  0  0  0  0  0  0  0  0  0  0  0
   -0.8200   22.7540  -10.0420 H   0  0  0  0  0  0  0  0  0  0  0  0
   -1.9190   23.3860  -11.3090 H   0  0  0  0  0  0  0  0  0  0  0  0
    3.5820   25.4030  -13.8050 C   0  0  0  0  0  0  0  0  0  0  0  0
    2.9070   24.5490  -13.8780 H   0  0  0  0  0  0  0  0  0  0  0  0
    4.1080   25.4250  -14.7520 H   0  0  0  0  0  0  0  0  0  0  0  0
    4.2930   25.2840  -12.9860 H   0  0  0  0  0  0  0  0  0  0  0  0
    6.0370   27.4120  -14.2770 C   0  0  0  0  0  0  0  0  0  0  0  0
    6.4820   27.7850  -13.3560 H   0  0  0  0  0  0  0  0  0  0  0  0
    6.7250   27.5940  -15.0990 H   0  0  0  0  0  0  0  0  0  0  0  0
    5.9120   26.3420  -14.1920 H   0  0  0  0  0  0  0  0  0  0  0  0
  1  2  2  0  0  0  0
  2  3  1  0  0  0  0
  2 17  1  0  0  0  0
  3  4  1  0  0  0  0
  3  5  2  0  0  0  0
  5  6  1  0  0  0  0
  5  7  1  0  0  0  0
  7  8  1  0  0  0  0
  7 15  1  0  0  0  0
  7 72  1  0  0  0  0
  8  9  2  0  0  0  0
  8 10  1  0  0  0  0
 10 11  1  0  0  0  0
 11 12  1  0  0  0  0
 11 13  1  0  0  0  0
 11 14  1  0  0  0  0
 15 16  1  0  0  0  0
 15 17  1  0  0  0  0
 15 45  1  0  0  0  0
 17 18  1  0  0  0  0
 17 68  1  0  0  0  0
 18 19  1  0  0  0  0
 18 20  1  0  0  0  0
 18 58  1  0  0  0  0
 20 21  1  0  0  0  0
 20 43  1  0  0  0  0
 20 54  1  0  0  0  0
 21 22  2  0  0  0  0
 21 40  1  0  0  0  0
 22 23  1  0  0  0  0
 22 27  1  0  0  0  0
 23 24  1  0  0  0  0
 23 25  1  0  0  0  0
 23 26  1  0  0  0  0
 27 28  1  0  0  0  0
 27 29  1  0  0  0  0
 27 37  1  0  0  0  0
 29 30  1  0  0  0  0
 29 35  2  0  0  0  0
 30 31  1  0  0  0  0
 30 32  2  0  0  0  0
 32 33  1  0  0  0  0
 32 34  1  0  0  0  0
 34 35  1  0  0  0  0
 35 36  1  0  0  0  0
 37 38  1  0  0  0  0
 37 39  1  0  0  0  0
 37 40  1  0  0  0  0
 40 41  1  0  0  0  0
 40 42  1  0  0  0  0
 42 43  1  0  0  0  0
 43 44  1  0  0  0  0
 43 45  1  0  0  0  0
 45 46  1  0  0  0  0
 45 47  1  0  0  0  0
 47 48  1  0  0  0  0
 48 49  2  0  0  0  0
 48 50  1  0  0  0  0
 50 51  1  0  0  0  0
 50 52  1  0  0  0  0
 50 53  1  0  0  0  0
 54 55  1  0  0  0  0
 54 56  1  0  0  0  0
 54 57  1  0  0  0  0
 58 59  1  0  0  0  0
 58 60  1  0  0  0  0
 58 61  1  0  0  0  0
 61 62  2  0  0  0  0
 61 63  1  0  0  0  0
 63 64  1  0  0  0  0
 64 65  1  0  0  0  0
 64 66  1  0  0  0  0
 64 67  1  0  0  0  0
 68 69  1  0  0  0  0
 68 70  1  0  0  0  0
 68 71  1  0  0  0  0
 72 73  1  0  0  0  0
 72 74  1  0  0  0  0
 72 75  1  0  0  0  0
M  END
>  <rseq>
1

>  <mseq>
6

>  <S>
-5.445292

>  <rmsd_refine>
2.126313

>  <E_conf>
104.41553

>  <E_place>
-43.760738

>  <E_score1>
760.40179

>  <E_refine>
-26.486177

>  <E_score2>
-5.445292

$$$$
Nimbin
  MOE2015           3D

 75 79  0  0  1  0  0  0  0  0999 V2000
    3.1840   24.6870   -9.5800 O   0  0  0  0  0  0  0  0  0  0  0  0
    3.5540   24.9910   -8.4690 C   0  0  0  0  0  0  0  0  0  0  0  0
    4.2050   23.9800   -7.6710 C   0  0  0  0  0  0  0  0  0  0  0  0
    4.2000   22.9950   -8.0630 H   0  0  0  0  0  0  0  0  0  0  0  0
    4.8030   24.2420   -6.4970 C   0  0  0  0  0  0  0  0  0  0  0  0
    5.2600   23.4610   -5.9430 H   0  0  0  0  0  0  0  0  0  0  0  0
    4.8960   25.6240   -5.8750 C   0  0  1  0  0  0  0  0  0  0  0  0
    6.3850   25.8320   -5.5540 C   0  0  0  0  0  0  0  0  0  0  0  0
    6.8250   26.1540   -4.4480 O   0  0  0  0  0  0  0  0  0  0  0  0
    7.2490   25.6420   -6.5770 O   0  0  0  0  0  0  0  0  0  0  0  0
    8.6820   25.7920   -6.4360 C   0  0  0  0  0  0  0  0  0  0  0  0
    9.1390   25.5670   -7.3990 H   0  0  0  0  0  0  0  0  0  0  0  0
    9.0280   25.0910   -5.6750 H   0  0  0  0  0  0  0  0  0  0  0  0
    8.8910   26.8210   -6.1420 H   0  0  0  0  0  0  0  0  0  0  0  0
    4.4570   26.7620   -6.9080 C   0  0  1  0  0  0  0  0  0  0  0  0
    5.3320   26.9580   -7.5240 H   0  0  0  0  0  0  0  0  0  0  0  0
    3.2970   26.4020   -7.9080 C   0  0  1  0  0  0  0  0  0  0  0  0
    3.3230   27.4540   -9.1100 C   0  0  2  0  0  0  0  0  0  0  0  0
    4.0440   27.0810   -9.8300 H   0  0  0  0  0  0  0  0  0  0  0  0
    3.8370   28.9180   -8.7080 C   0  0  2  0  0  0  0  0  0  0  0  0
    5.3080   29.1450   -9.0760 C   0  0  0  0  0  0  0  0  0  0  0  0
    6.0070   29.2640  -10.2070 C   0  0  0  0  0  0  0  0  0  0  0  0
    5.5480   28.9930  -11.6230 C   0  0  0  0  0  0  0  0  0  0  0  0
    5.4500   29.9480  -12.1200 H   0  0  0  0  0  0  0  0  0  0  0  0
    6.2980   28.3780  -12.0980 H   0  0  0  0  0  0  0  0  0  0  0  0
    4.6050   28.4800  -11.5810 H   0  0  0  0  0  0  0  0  0  0  0  0
    7.3310   29.9460   -9.9380 C   0  0  2  0  0  0  0  0  0  0  0  0
    7.5780   30.6860  -10.6880 H   0  0  0  0  0  0  0  0  0  0  0  0
    8.4370   28.9060   -9.8050 C   0  0  0  0  0  0  0  0  0  0  0  0
    9.0010   28.1950  -10.8670 C   0  0  0  0  0  0  0  0  0  0  0  0
    8.7080   28.2480  -11.8810 H   0  0  0  0  0  0  0  0  0  0  0  0
    9.9840   27.4200  -10.3590 C   0  0  0  0  0  0  0  0  0  0  0  0
   10.6430   26.7500  -10.8450 H   0  0  0  0  0  0  0  0  0  0  0  0
   10.0540   27.5960   -9.0200 O   0  0  0  0  0  0  0  0  0  0  0  0
    9.1030   28.5030   -8.6930 C   0  0  0  0  0  0  0  0  0  0  0  0
    8.9880   28.7940   -7.6820 H   0  0  0  0  0  0  0  0  0  0  0  0
    7.0360   30.6170   -8.5620 C   0  0  0  0  0  0  0  0  0  0  0  0
    6.5200   31.5660   -8.7120 H   0  0  0  0  0  0  0  0  0  0  0  0
    7.9410   30.7710   -7.9830 H   0  0  0  0  0  0  0  0  0  0  0  0
    6.0870   29.6050   -7.8990 C   0  0  1  0  0  0  0  0  0  0  0  0
    6.6130   28.7960   -7.4110 H   0  0  0  0  0  0  0  0  0  0  0  0
    5.0520   30.1560   -7.1010 O   0  0  0  0  0  0  0  0  0  0  0  0
    3.8600   29.2910   -7.1810 C   0  0  2  0  0  0  0  0  0  0  0  0
    2.9610   29.8220   -6.8650 H   0  0  0  0  0  0  0  0  0  0  0  0
    4.0770   28.0920   -6.2090 C   0  0  2  0  0  0  0  0  0  0  0  0
    3.1450   27.9390   -5.6660 H   0  0  0  0  0  0  0  0  0  0  0  0
    5.1350   28.4460   -5.2580 O   0  0  0  0  0  0  0  0  0  0  0  0
    4.9080   29.1970   -4.1660 C   0  0  0  0  0  0  0  0  0  0  0  0
    3.7730   29.5710   -3.8720 O   0  0  0  0  0  0  0  0  0  0  0  0
    6.1070   29.5680   -3.3080 C   0  0  0  0  0  0  0  0  0  0  0  0
    6.7460   30.2470   -3.8710 H   0  0  0  0  0  0  0  0  0  0  0  0
    6.6710   28.6690   -3.0610 H   0  0  0  0  0  0  0  0  0  0  0  0
    5.7750   30.0540   -2.3910 H   0  0  0  0  0  0  0  0  0  0  0  0
    3.0680   30.0790   -9.3980 C   0  0  0  0  0  0  0  0  0  0  0  0
    3.5100   31.0250   -9.0830 H   0  0  0  0  0  0  0  0  0  0  0  0
    3.1660   30.0090  -10.4780 H   0  0  0  0  0  0  0  0  0  0  0  0
    2.0230   30.0790   -9.0940 H   0  0  0  0  0  0  0  0  0  0  0  0
    1.9550   27.4420   -9.8810 C   0  0  0  0  0  0  0  0  0  0  0  0
    1.2250   28.0960   -9.4080 H   0  0  0  0  0  0  0  0  0  0  0  0
    1.5190   26.4480   -9.8570 H   0  0  0  0  0  0  0  0  0  0  0  0
    2.0480   27.7380  -11.3780 C   0  0  0  0  0  0  0  0  0  0  0  0
    1.4900   28.7180  -11.8720 O   0  0  0  0  0  0  0  0  0  0  0  0
    2.7050   26.8500  -12.1480 O   0  0  0  0  0  0  0  0  0  0  0  0
    2.8310   27.0130  -13.5820 C   0  0  0  0  0  0  0  0  0  0  0  0
    3.3340   27.9610  -13.7780 H   0  0  0  0  0  0  0  0  0  0  0  0
    1.8310   27.0050  -14.0170 H   0  0  0  0  0  0  0  0  0  0  0  0
    3.4220   26.1800  -13.9630 H   0  0  0  0  0  0  0  0  0  0  0  0
    1.8970   26.3790   -7.2120 C   0  0  0  0  0  0  0  0  0  0  0  0
    1.1730   25.8610   -7.8390 H   0  0  0  0  0  0  0  0  0  0  0  0
    1.9420   25.8280   -6.2830 H   0  0  0  0  0  0  0  0  0  0  0  0
    1.5480   27.3950   -7.0270 H   0  0  0  0  0  0  0  0  0  0  0  0
    4.0900   25.5450   -4.5440 C   0  0  0  0  0  0  0  0  0  0  0  0
    4.0600   26.5060   -4.0360 H   0  0  0  0  0  0  0  0  0  0  0  0
    4.5900   24.8270   -3.8920 H   0  0  0  0  0  0  0  0  0  0  0  0
    3.0850   25.1760   -4.7160 H   0  0  0  0  0  0  0  0  0  0  0  0
  1  2  2  0  0  0  0
  2  3  1  0  0  0  0
  2 17  1  0  0  0  0
  3  4  1  0  0  0  0
  3  5  2  0  0  0  0
  5  6  1  0  0  0  0
  5  7  1  0  0  0  0
  7  8  1  0  0  0  0
  7 15  1  0  0  0  0
  7 72  1  0  0  0  0
  8  9  2  0  0  0  0
  8 10  1  0  0  0  0
 10 11  1  0  0  0  0
 11 12  1  0  0  0  0
 11 13  1  0  0  0  0
 11 14  1  0  0  0  0
 15 16  1  0  0  0  0
 15 17  1  0  0  0  0
 15 45  1  0  0  0  0
 17 18  1  0  0  0  0
 17 68  1  0  0  0  0
 18 19  1  0  0  0  0
 18 20  1  0  0  0  0
 18 58  1  0  0  0  0
 20 21  1  0  0  0  0
 20 43  1  0  0  0  0
 20 54  1  0  0  0  0
 21 22  2  0  0  0  0
 21 40  1  0  0  0  0
 22 23  1  0  0  0  0
 22 27  1  0  0  0  0
 23 24  1  0  0  0  0
 23 25  1  0  0  0  0
 23 26  1  0  0  0  0
 27 28  1  0  0  0  0
 27 29  1  0  0  0  0
 27 37  1  0  0  0  0
 29 30  1  0  0  0  0
 29 35  2  0  0  0  0
 30 31  1  0  0  0  0
 30 32  2  0  0  0  0
 32 33  1  0  0  0  0
 32 34  1  0  0  0  0
 34 35  1  0  0  0  0
 35 36  1  0  0  0  0
 37 38  1  0  0  0  0
 37 39  1  0  0  0  0
 37 40  1  0  0  0  0
 40 41  1  0  0  0  0
 40 42  1  0  0  0  0
 42 43  1  0  0  0  0
 43 44  1  0  0  0  0
 43 45  1  0  0  0  0
 45 46  1  0  0  0  0
 45 47  1  0  0  0  0
 47 48  1  0  0  0  0
 48 49  2  0  0  0  0
 48 50  1  0  0  0  0
 50 51  1  0  0  0  0
 50 52  1  0  0  0  0
 50 53  1  0  0  0  0
 54 55  1  0  0  0  0
 54 56  1  0  0  0  0
 54 57  1  0  0  0  0
 58 59  1  0  0  0  0
 58 60  1  0  0  0  0
 58 61  1  0  0  0  0
 61 62  2  0  0  0  0
 61 63  1  0  0  0  0
 63 64  1  0  0  0  0
 64 65  1  0  0  0  0
 64 66  1  0  0  0  0
 64 67  1  0  0  0  0
 68 69  1  0  0  0  0
 68 70  1  0  0  0  0
 68 71  1  0  0  0  0
 72 73  1  0  0  0  0
 72 74  1  0  0  0  0
 72 75  1  0  0  0  0
M  END
>  <rseq>
1

>  <mseq>
6

>  <S>
-5.3860068

>  <rmsd_refine>
2.4948916

>  <E_conf>
98.367302

>  <E_place>
-22.37842

>  <E_score1>
562.05481

>  <E_refine>
-23.478363

>  <E_score2>
-5.3860068

$$$$
Nimbin
  MOE2015           3D

 75 79  0  0  1  0  0  0  0  0999 V2000
    1.0140   30.9610  -15.2070 O   0  0  0  0  0  0  0  0  0  0  0  0
    1.8040   30.0540  -15.1040 C   0  0  0  0  0  0  0  0  0  0  0  0
    3.0290   30.1610  -15.8580 C   0  0  0  0  0  0  0  0  0  0  0  0
    3.1740   31.0640  -16.3940 H   0  0  0  0  0  0  0  0  0  0  0  0
    3.9470   29.1850  -15.9100 C   0  0  0  0  0  0  0  0  0  0  0  0
    4.8220   29.3040  -16.4950 H   0  0  0  0  0  0  0  0  0  0  0  0
    3.8250   27.8660  -15.1740 C   0  0  1  0  0  0  0  0  0  0  0  0
    5.2100   27.6260  -14.5560 C   0  0  0  0  0  0  0  0  0  0  0  0
    5.8470   26.5770  -14.6530 O   0  0  0  0  0  0  0  0  0  0  0  0
    5.7540   28.6690  -13.8910 O   0  0  0  0  0  0  0  0  0  0  0  0
    7.0830   28.6290  -13.3290 C   0  0  0  0  0  0  0  0  0  0  0  0
    7.0700   27.9630  -12.4670 H   0  0  0  0  0  0  0  0  0  0  0  0
    7.3510   29.6420  -13.0280 H   0  0  0  0  0  0  0  0  0  0  0  0
    7.7630   28.2630  -14.0980 H   0  0  0  0  0  0  0  0  0  0  0  0
    2.7600   27.9580  -13.9980 C   0  0  1  0  0  0  0  0  0  0  0  0
    3.2800   28.4580  -13.1810 H   0  0  0  0  0  0  0  0  0  0  0  0
    1.4500   28.7960  -14.2800 C   0  0  1  0  0  0  0  0  0  0  0  0
    0.8650   29.2250  -12.8590 C   0  0  2  0  0  0  0  0  0  0  0  0
    1.4540   30.0860  -12.5420 H   0  0  0  0  0  0  0  0  0  0  0  0
    1.0350   28.0920  -11.7220 C   0  0  2  0  0  0  0  0  0  0  0  0
    2.1760   28.3800  -10.7430 C   0  0  0  0  0  0  0  0  0  0  0  0
    2.4210   29.2970   -9.8060 C   0  0  0  0  0  0  0  0  0  0  0  0
    1.6670   30.5810   -9.5490 C   0  0  0  0  0  0  0  0  0  0  0  0
    0.7740   30.3340   -8.9930 H   0  0  0  0  0  0  0  0  0  0  0  0
    2.3160   31.2260   -8.9740 H   0  0  0  0  0  0  0  0  0  0  0  0
    1.4420   31.0280  -10.5020 H   0  0  0  0  0  0  0  0  0  0  0  0
    3.4440   28.7800   -8.8160 C   0  0  2  0  0  0  0  0  0  0  0  0
    3.1730   28.9990   -7.7920 H   0  0  0  0  0  0  0  0  0  0  0  0
    4.8370   29.2960   -9.1480 C   0  0  0  0  0  0  0  0  0  0  0  0
    5.8070   29.6890   -8.2160 C   0  0  0  0  0  0  0  0  0  0  0  0
    5.7060   29.7030   -7.1610 H   0  0  0  0  0  0  0  0  0  0  0  0
    6.9090   30.0520   -8.9110 C   0  0  0  0  0  0  0  0  0  0  0  0
    7.8460   30.4090   -8.5670 H   0  0  0  0  0  0  0  0  0  0  0  0
    6.6790   29.9010  -10.2370 O   0  0  0  0  0  0  0  0  0  0  0  0
    5.4070   29.4420  -10.3680 C   0  0  0  0  0  0  0  0  0  0  0  0
    5.0100   29.2610  -11.3330 H   0  0  0  0  0  0  0  0  0  0  0  0
    3.3870   27.2450   -9.1040 C   0  0  0  0  0  0  0  0  0  0  0  0
    2.5550   26.8040   -8.5520 H   0  0  0  0  0  0  0  0  0  0  0  0
    4.3180   26.7350   -8.8570 H   0  0  0  0  0  0  0  0  0  0  0  0
    3.0780   27.2070  -10.6140 C   0  0  1  0  0  0  0  0  0  0  0  0
    3.9590   27.3100  -11.2290 H   0  0  0  0  0  0  0  0  0  0  0  0
    2.2250   26.1620  -11.0530 O   0  0  0  0  0  0  0  0  0  0  0  0
    1.4200   26.6390  -12.1920 C   0  0  2  0  0  0  0  0  0  0  0  0
    0.5460   26.0070  -12.3540 H   0  0  0  0  0  0  0  0  0  0  0  0
    2.3090   26.5670  -13.4740 C   0  0  2  0  0  0  0  0  0  0  0  0
    1.7170   26.0890  -14.2520 H   0  0  0  0  0  0  0  0  0  0  0  0
    3.4840   25.7300  -13.1910 O   0  0  0  0  0  0  0  0  0  0  0  0
    3.4410   24.3850  -13.2660 C   0  0  0  0  0  0  0  0  0  0  0  0
    2.4520   23.8000  -13.7080 O   0  0  0  0  0  0  0  0  0  0  0  0
    4.6420   23.5990  -12.7600 C   0  0  0  0  0  0  0  0  0  0  0  0
    4.5900   23.5250  -11.6740 H   0  0  0  0  0  0  0  0  0  0  0  0
    5.5590   24.1170  -13.0360 H   0  0  0  0  0  0  0  0  0  0  0  0
    4.6450   22.6010  -13.1970 H   0  0  0  0  0  0  0  0  0  0  0  0
   -0.2110   27.8960  -10.8110 C   0  0  0  0  0  0  0  0  0  0  0  0
    0.0270   27.1670  -10.0350 H   0  0  0  0  0  0  0  0  0  0  0  0
   -0.4660   28.8280  -10.3180 H   0  0  0  0  0  0  0  0  0  0  0  0
   -1.0490   27.5070  -11.3880 H   0  0  0  0  0  0  0  0  0  0  0  0
   -0.6130   29.7470  -12.9840 C   0  0  0  0  0  0  0  0  0  0  0  0
   -1.3330   28.9330  -12.9430 H   0  0  0  0  0  0  0  0  0  0  0  0
   -0.7890   30.2060  -13.9490 H   0  0  0  0  0  0  0  0  0  0  0  0
   -0.9910   30.8450  -11.9880 C   0  0  0  0  0  0  0  0  0  0  0  0
   -1.9020   30.6860  -11.1750 O   0  0  0  0  0  0  0  0  0  0  0  0
   -0.3420   32.0190  -12.0790 O   0  0  0  0  0  0  0  0  0  0  0  0
   -0.6290   33.1410  -11.2120 C   0  0  0  0  0  0  0  0  0  0  0  0
   -0.4790   32.8250  -10.1800 H   0  0  0  0  0  0  0  0  0  0  0  0
   -1.6610   33.4500  -11.3810 H   0  0  0  0  0  0  0  0  0  0  0  0
    0.0600   33.9450  -11.4690 H   0  0  0  0  0  0  0  0  0  0  0  0
    0.3750   28.0060  -15.1010 C   0  0  0  0  0  0  0  0  0  0  0  0
   -0.3780   28.6920  -15.4870 H   0  0  0  0  0  0  0  0  0  0  0  0
    0.8310   27.5180  -15.9530 H   0  0  0  0  0  0  0  0  0  0  0  0
   -0.1200   27.2680  -14.4700 H   0  0  0  0  0  0  0  0  0  0  0  0
    3.5390   26.7970  -16.2600 C   0  0  0  0  0  0  0  0  0  0  0  0
    3.4210   25.8110  -15.8150 H   0  0  0  0  0  0  0  0  0  0  0  0
    4.3920   26.7800  -16.9390 H   0  0  0  0  0  0  0  0  0  0  0  0
    2.6610   27.0680  -16.8380 H   0  0  0  0  0  0  0  0  0  0  0  0
  1  2  2  0  0  0  0
  2  3  1  0  0  0  0
  2 17  1  0  0  0  0
  3  4  1  0  0  0  0
  3  5  2  0  0  0  0
  5  6  1  0  0  0  0
  5  7  1  0  0  0  0
  7  8  1  0  0  0  0
  7 15  1  0  0  0  0
  7 72  1  0  0  0  0
  8  9  2  0  0  0  0
  8 10  1  0  0  0  0
 10 11  1  0  0  0  0
 11 12  1  0  0  0  0
 11 13  1  0  0  0  0
 11 14  1  0  0  0  0
 15 16  1  0  0  0  0
 15 17  1  0  0  0  0
 15 45  1  0  0  0  0
 17 18  1  0  0  0  0
 17 68  1  0  0  0  0
 18 19  1  0  0  0  0
 18 20  1  0  0  0  0
 18 58  1  0  0  0  0
 20 21  1  0  0  0  0
 20 43  1  0  0  0  0
 20 54  1  0  0  0  0
 21 22  2  0  0  0  0
 21 40  1  0  0  0  0
 22 23  1  0  0  0  0
 22 27  1  0  0  0  0
 23 24  1  0  0  0  0
 23 25  1  0  0  0  0
 23 26  1  0  0  0  0
 27 28  1  0  0  0  0
 27 29  1  0  0  0  0
 27 37  1  0  0  0  0
 29 30  1  0  0  0  0
 29 35  2  0  0  0  0
 30 31  1  0  0  0  0
 30 32  2  0  0  0  0
 32 33  1  0  0  0  0
 32 34  1  0  0  0  0
 34 35  1  0  0  0  0
 35 36  1  0  0  0  0
 37 38  1  0  0  0  0
 37 39  1  0  0  0  0
 37 40  1  0  0  0  0
 40 41  1  0  0  0  0
 40 42  1  0  0  0  0
 42 43  1  0  0  0  0
 43 44  1  0  0  0  0
 43 45  1  0  0  0  0
 45 46  1  0  0  0  0
 45 47  1  0  0  0  0
 47 48  1  0  0  0  0
 48 49  2  0  0  0  0
 48 50  1  0  0  0  0
 50 51  1  0  0  0  0
 50 52  1  0  0  0  0
 50 53  1  0  0  0  0
 54 55  1  0  0  0  0
 54 56  1  0  0  0  0
 54 57  1  0  0  0  0
 58 59  1  0  0  0  0
 58 60  1  0  0  0  0
 58 61  1  0  0  0  0
 61 62  2  0  0  0  0
 61 63  1  0  0  0  0
 63 64  1  0  0  0  0
 64 65  1  0  0  0  0
 64 66  1  0  0  0  0
 64 67  1  0  0  0  0
 68 69  1  0  0  0  0
 68 70  1  0  0  0  0
 68 71  1  0  0  0  0
 72 73  1  0  0  0  0
 72 74  1  0  0  0  0
 72 75  1  0  0  0  0
M  END
>  <rseq>
1

>  <mseq>
6

>  <S>
-5.3490057

>  <rmsd_refine>
2.0341561

>  <E_conf>
99.563454

>  <E_place>
-27.003641

>  <E_score1>
1304.7495

>  <E_refine>
-25.017006

>  <E_score2>
-5.3490057

$$$$
Nimbin
  MOE2015           3D

 75 79  0  0  1  0  0  0  0  0999 V2000
    0.2900   31.6150  -11.7580 O   0  0  0  0  0  0  0  0  0  0  0  0
   -0.4640   31.2960  -12.6460 C   0  0  0  0  0  0  0  0  0  0  0  0
   -1.4060   32.2840  -13.1270 C   0  0  0  0  0  0  0  0  0  0  0  0
   -1.4970   33.1670  -12.5490 H   0  0  0  0  0  0  0  0  0  0  0  0
   -2.1340   32.1220  -14.2480 C   0  0  0  0  0  0  0  0  0  0  0  0
   -2.8240   32.8680  -14.5530 H   0  0  0  0  0  0  0  0  0  0  0  0
   -2.0070   30.9270  -15.1760 C   0  0  1  0  0  0  0  0  0  0  0  0
   -1.7710   31.5140  -16.5810 C   0  0  0  0  0  0  0  0  0  0  0  0
   -2.5780   31.4270  -17.5110 O   0  0  0  0  0  0  0  0  0  0  0  0
   -0.5960   32.1410  -16.7960 O   0  0  0  0  0  0  0  0  0  0  0  0
   -0.1970   32.6260  -18.0970 C   0  0  0  0  0  0  0  0  0  0  0  0
    0.8370   32.9570  -18.0190 H   0  0  0  0  0  0  0  0  0  0  0  0
   -0.8520   33.4540  -18.3700 H   0  0  0  0  0  0  0  0  0  0  0  0
   -0.2800   31.8060  -18.8110 H   0  0  0  0  0  0  0  0  0  0  0  0
   -0.7460   30.0380  -14.7710 C   0  0  1  0  0  0  0  0  0  0  0  0
    0.1360   30.5620  -15.1390 H   0  0  0  0  0  0  0  0  0  0  0  0
   -0.4890   29.8630  -13.2230 C   0  0  1  0  0  0  0  0  0  0  0  0
    0.9300   29.1450  -13.0070 C   0  0  2  0  0  0  0  0  0  0  0  0
    1.6730   29.9160  -13.2120 H   0  0  0  0  0  0  0  0  0  0  0  0
    1.2390   27.9010  -13.9790 C   0  0  2  0  0  0  0  0  0  0  0  0
    2.6990   27.9750  -14.3990 C   0  0  0  0  0  0  0  0  0  0  0  0
    3.8260   27.2790  -14.2360 C   0  0  0  0  0  0  0  0  0  0  0  0
    4.0640   26.0500  -13.3840 C   0  0  0  0  0  0  0  0  0  0  0  0
    3.6800   25.2020  -13.9350 H   0  0  0  0  0  0  0  0  0  0  0  0
    5.1300   25.9610  -13.2340 H   0  0  0  0  0  0  0  0  0  0  0  0
    3.5610   26.1700  -12.4420 H   0  0  0  0  0  0  0  0  0  0  0  0
    4.8930   27.7570  -15.1920 C   0  0  2  0  0  0  0  0  0  0  0  0
    5.4610   26.9460  -15.6260 H   0  0  0  0  0  0  0  0  0  0  0  0
    5.7940   28.7450  -14.4630 C   0  0  0  0  0  0  0  0  0  0  0  0
    6.9250   28.4080  -13.7080 C   0  0  0  0  0  0  0  0  0  0  0  0
    7.3070   27.4360  -13.5360 H   0  0  0  0  0  0  0  0  0  0  0  0
    7.4440   29.5610  -13.2300 C   0  0  0  0  0  0  0  0  0  0  0  0
    8.2880   29.7270  -12.6120 H   0  0  0  0  0  0  0  0  0  0  0  0
    6.7010   30.6060  -13.6550 O   0  0  0  0  0  0  0  0  0  0  0  0
    5.6950   30.0970  -14.4040 C   0  0  0  0  0  0  0  0  0  0  0  0
    4.9890   30.7550  -14.8380 H   0  0  0  0  0  0  0  0  0  0  0  0
    4.0290   28.4820  -16.2670 C   0  0  0  0  0  0  0  0  0  0  0  0
    3.6910   27.7440  -16.9960 H   0  0  0  0  0  0  0  0  0  0  0  0
    4.5590   29.2860  -16.7730 H   0  0  0  0  0  0  0  0  0  0  0  0
    2.8180   29.0070  -15.4670 C   0  0  1  0  0  0  0  0  0  0  0  0
    2.9450   30.0070  -15.0760 H   0  0  0  0  0  0  0  0  0  0  0  0
    1.5900   28.8380  -16.1720 O   0  0  0  0  0  0  0  0  0  0  0  0
    0.6380   28.0200  -15.4100 C   0  0  2  0  0  0  0  0  0  0  0  0
    0.5680   27.0370  -15.8770 H   0  0  0  0  0  0  0  0  0  0  0  0
   -0.7520   28.6550  -15.4590 C   0  0  2  0  0  0  0  0  0  0  0  0
   -1.4690   27.9980  -14.9720 H   0  0  0  0  0  0  0  0  0  0  0  0
   -1.0630   28.8050  -16.8770 O   0  0  0  0  0  0  0  0  0  0  0  0
   -1.6020   27.8200  -17.6140 C   0  0  0  0  0  0  0  0  0  0  0  0
   -1.8520   26.7180  -17.1260 O   0  0  0  0  0  0  0  0  0  0  0  0
   -1.9240   28.1240  -19.0700 C   0  0  0  0  0  0  0  0  0  0  0  0
   -1.0000   28.3050  -19.6160 H   0  0  0  0  0  0  0  0  0  0  0  0
   -2.5480   29.0160  -19.1220 H   0  0  0  0  0  0  0  0  0  0  0  0
   -2.4540   27.2830  -19.5190 H   0  0  0  0  0  0  0  0  0  0  0  0
    0.8340   26.5080  -13.4290 C   0  0  0  0  0  0  0  0  0  0  0  0
    1.1000   25.7470  -14.1630 H   0  0  0  0  0  0  0  0  0  0  0  0
    1.3550   26.2840  -12.5020 H   0  0  0  0  0  0  0  0  0  0  0  0
   -0.2420   26.4910  -13.2630 H   0  0  0  0  0  0  0  0  0  0  0  0
    1.1530   28.7450  -11.5080 C   0  0  0  0  0  0  0  0  0  0  0  0
    0.5390   27.8870  -11.2380 H   0  0  0  0  0  0  0  0  0  0  0  0
    0.8360   29.5400  -10.8440 H   0  0  0  0  0  0  0  0  0  0  0  0
    2.5970   28.4560  -11.1090 C   0  0  0  0  0  0  0  0  0  0  0  0
    2.8650   27.4650  -10.4280 O   0  0  0  0  0  0  0  0  0  0  0  0
    3.5460   29.3510  -11.4320 O   0  0  0  0  0  0  0  0  0  0  0  0
    4.9160   29.1620  -11.0160 C   0  0  0  0  0  0  0  0  0  0  0  0
    5.2820   28.2400  -11.4630 H   0  0  0  0  0  0  0  0  0  0  0  0
    4.9440   29.1120   -9.9270 H   0  0  0  0  0  0  0  0  0  0  0  0
    5.4950   30.0110  -11.3730 H   0  0  0  0  0  0  0  0  0  0  0  0
   -1.6320   29.1110  -12.4750 C   0  0  0  0  0  0  0  0  0  0  0  0
   -1.3870   29.0030  -11.4210 H   0  0  0  0  0  0  0  0  0  0  0  0
   -2.5320   29.7170  -12.4870 H   0  0  0  0  0  0  0  0  0  0  0  0
   -1.8160   28.1310  -12.9070 H   0  0  0  0  0  0  0  0  0  0  0  0
   -3.3730   30.1730  -15.1790 C   0  0  0  0  0  0  0  0  0  0  0  0
   -3.3620   29.3730  -15.9160 H   0  0  0  0  0  0  0  0  0  0  0  0
   -4.1510   30.8870  -15.4520 H   0  0  0  0  0  0  0  0  0  0  0  0
   -3.6210   29.7620  -14.2100 H   0  0  0  0  0  0  0  0  0  0  0  0
  1  2  2  0  0  0  0
  2  3  1  0  0  0  0
  2 17  1  0  0  0  0
  3  4  1  0  0  0  0
  3  5  2  0  0  0  0
  5  6  1  0  0  0  0
  5  7  1  0  0  0  0
  7  8  1  0  0  0  0
  7 15  1  0  0  0  0
  7 72  1  0  0  0  0
  8  9  2  0  0  0  0
  8 10  1  0  0  0  0
 10 11  1  0  0  0  0
 11 12  1  0  0  0  0
 11 13  1  0  0  0  0
 11 14  1  0  0  0  0
 15 16  1  0  0  0  0
 15 17  1  0  0  0  0
 15 45  1  0  0  0  0
 17 18  1  0  0  0  0
 17 68  1  0  0  0  0
 18 19  1  0  0  0  0
 18 20  1  0  0  0  0
 18 58  1  0  0  0  0
 20 21  1  0  0  0  0
 20 43  1  0  0  0  0
 20 54  1  0  0  0  0
 21 22  2  0  0  0  0
 21 40  1  0  0  0  0
 22 23  1  0  0  0  0
 22 27  1  0  0  0  0
 23 24  1  0  0  0  0
 23 25  1  0  0  0  0
 23 26  1  0  0  0  0
 27 28  1  0  0  0  0
 27 29  1  0  0  0  0
 27 37  1  0  0  0  0
 29 30  1  0  0  0  0
 29 35  2  0  0  0  0
 30 31  1  0  0  0  0
 30 32  2  0  0  0  0
 32 33  1  0  0  0  0
 32 34  1  0  0  0  0
 34 35  1  0  0  0  0
 35 36  1  0  0  0  0
 37 38  1  0  0  0  0
 37 39  1  0  0  0  0
 37 40  1  0  0  0  0
 40 41  1  0  0  0  0
 40 42  1  0  0  0  0
 42 43  1  0  0  0  0
 43 44  1  0  0  0  0
 43 45  1  0  0  0  0
 45 46  1  0  0  0  0
 45 47  1  0  0  0  0
 47 48  1  0  0  0  0
 48 49  2  0  0  0  0
 48 50  1  0  0  0  0
 50 51  1  0  0  0  0
 50 52  1  0  0  0  0
 50 53  1  0  0  0  0
 54 55  1  0  0  0  0
 54 56  1  0  0  0  0
 54 57  1  0  0  0  0
 58 59  1  0  0  0  0
 58 60  1  0  0  0  0
 58 61  1  0  0  0  0
 61 62  2  0  0  0  0
 61 63  1  0  0  0  0
 63 64  1  0  0  0  0
 64 65  1  0  0  0  0
 64 66  1  0  0  0  0
 64 67  1  0  0  0  0
 68 69  1  0  0  0  0
 68 70  1  0  0  0  0
 68 71  1  0  0  0  0
 72 73  1  0  0  0  0
 72 74  1  0  0  0  0
 72 75  1  0  0  0  0
M  END
>  <rseq>
1

>  <mseq>
6

>  <S>
-5.2791786

>  <rmsd_refine>
2.8151112

>  <E_conf>
87.585098

>  <E_place>
-31.680321

>  <E_score1>
8.9331856

>  <E_refine>
-24.253143

>  <E_score2>
-5.2791786

$$$$
Nimbin
  MOE2015           3D

 75 79  0  0  1  0  0  0  0  0999 V2000
   -0.3060   25.9360  -13.8730 O   0  0  0  0  0  0  0  0  0  0  0  0
    0.7330   26.2470  -14.4090 C   0  0  0  0  0  0  0  0  0  0  0  0
    0.7660   26.5490  -15.8290 C   0  0  0  0  0  0  0  0  0  0  0  0
   -0.0860   26.2690  -16.3930 H   0  0  0  0  0  0  0  0  0  0  0  0
    1.8290   27.1340  -16.4270 C   0  0  0  0  0  0  0  0  0  0  0  0
    1.8300   27.2850  -17.4730 H   0  0  0  0  0  0  0  0  0  0  0  0
    3.0390   27.7010  -15.6730 C   0  0  1  0  0  0  0  0  0  0  0  0
    3.0700   29.1980  -16.0330 C   0  0  0  0  0  0  0  0  0  0  0  0
    4.0580   29.7860  -16.4840 O   0  0  0  0  0  0  0  0  0  0  0  0
    1.9250   29.8920  -15.8560 O   0  0  0  0  0  0  0  0  0  0  0  0
    1.7990   31.3000  -16.1670 C   0  0  0  0  0  0  0  0  0  0  0  0
    0.8570   31.6520  -15.7490 H   0  0  0  0  0  0  0  0  0  0  0  0
    1.8000   31.4110  -17.2500 H   0  0  0  0  0  0  0  0  0  0  0  0
    2.6390   31.8310  -15.7190 H   0  0  0  0  0  0  0  0  0  0  0  0
    2.7780   27.5500  -14.1200 C   0  0  1  0  0  0  0  0  0  0  0  0
    2.0370   28.3060  -13.9520 H   0  0  0  0  0  0  0  0  0  0  0  0
    2.0760   26.2150  -13.6770 C   0  0  1  0  0  0  0  0  0  0  0  0
    1.9040   26.1320  -12.0560 C   0  0  2  0  0  0  0  0  0  0  0  0
    0.9090   25.7720  -11.8160 H   0  0  0  0  0  0  0  0  0  0  0  0
    2.1290   27.5460  -11.3450 C   0  0  2  0  0  0  0  0  0  0  0  0
    1.1100   28.6330  -11.6690 C   0  0  0  0  0  0  0  0  0  0  0  0
   -0.1780   28.8130  -11.3770 C   0  0  0  0  0  0  0  0  0  0  0  0
   -1.1590   27.8090  -10.8080 C   0  0  0  0  0  0  0  0  0  0  0  0
   -1.2810   28.0420   -9.7590 H   0  0  0  0  0  0  0  0  0  0  0  0
   -2.0870   27.9330  -11.3480 H   0  0  0  0  0  0  0  0  0  0  0  0
   -0.7710   26.8140  -10.9450 H   0  0  0  0  0  0  0  0  0  0  0  0
   -0.5200   30.2840  -11.4720 C   0  0  2  0  0  0  0  0  0  0  0  0
   -1.2030   30.6150  -10.7020 H   0  0  0  0  0  0  0  0  0  0  0  0
   -1.0280   30.6110  -12.8700 C   0  0  0  0  0  0  0  0  0  0  0  0
   -1.3610   31.8870  -13.3450 C   0  0  0  0  0  0  0  0  0  0  0  0
   -1.3170   32.7970  -12.8060 H   0  0  0  0  0  0  0  0  0  0  0  0
   -1.7450   31.7470  -14.6340 C   0  0  0  0  0  0  0  0  0  0  0  0
   -2.0650   32.4780  -15.3320 H   0  0  0  0  0  0  0  0  0  0  0  0
   -1.6710   30.4420  -14.9920 O   0  0  0  0  0  0  0  0  0  0  0  0
   -1.2320   29.7580  -13.9040 C   0  0  0  0  0  0  0  0  0  0  0  0
   -1.0960   28.7080  -13.9590 H   0  0  0  0  0  0  0  0  0  0  0  0
    0.9070   30.9070  -11.3050 C   0  0  0  0  0  0  0  0  0  0  0  0
    1.1970   30.9000  -10.2530 H   0  0  0  0  0  0  0  0  0  0  0  0
    0.9670   31.9160  -11.7090 H   0  0  0  0  0  0  0  0  0  0  0  0
    1.7670   29.9040  -12.0960 C   0  0  1  0  0  0  0  0  0  0  0  0
    1.6960   30.1100  -13.1530 H   0  0  0  0  0  0  0  0  0  0  0  0
    3.1180   29.6890  -11.6680 O   0  0  0  0  0  0  0  0  0  0  0  0
    3.4720   28.2440  -11.7250 C   0  0  2  0  0  0  0  0  0  0  0  0
    4.2800   28.0130  -11.0310 H   0  0  0  0  0  0  0  0  0  0  0  0
    3.9520   27.8570  -13.1570 C   0  0  2  0  0  0  0  0  0  0  0  0
    4.5650   26.9580  -13.0890 H   0  0  0  0  0  0  0  0  0  0  0  0
    4.7330   28.9720  -13.6670 O   0  0  0  0  0  0  0  0  0  0  0  0
    6.0360   29.1290  -13.3770 C   0  0  0  0  0  0  0  0  0  0  0  0
    6.6280   28.3370  -12.6450 O   0  0  0  0  0  0  0  0  0  0  0  0
    6.7730   30.2930  -14.0130 C   0  0  0  0  0  0  0  0  0  0  0  0
    7.7730   29.9730  -14.3020 H   0  0  0  0  0  0  0  0  0  0  0  0
    6.8470   31.1050  -13.2960 H   0  0  0  0  0  0  0  0  0  0  0  0
    6.2340   30.6400  -14.8940 H   0  0  0  0  0  0  0  0  0  0  0  0
    2.1010   27.4790   -9.7930 C   0  0  0  0  0  0  0  0  0  0  0  0
    2.0440   28.4920   -9.3900 H   0  0  0  0  0  0  0  0  0  0  0  0
    1.2260   26.9180   -9.4660 H   0  0  0  0  0  0  0  0  0  0  0  0
    3.0210   27.0360   -9.4180 H   0  0  0  0  0  0  0  0  0  0  0  0
    2.8530   25.0490  -11.4210 C   0  0  0  0  0  0  0  0  0  0  0  0
    3.8850   25.3830  -11.4770 H   0  0  0  0  0  0  0  0  0  0  0  0
    2.7790   24.1100  -11.9560 H   0  0  0  0  0  0  0  0  0  0  0  0
    2.5360   24.5820  -10.0000 C   0  0  0  0  0  0  0  0  0  0  0  0
    3.4240   24.5220   -9.1470 O   0  0  0  0  0  0  0  0  0  0  0  0
    1.2770   24.1960   -9.7240 O   0  0  0  0  0  0  0  0  0  0  0  0
    0.8860   23.7340   -8.4090 C   0  0  0  0  0  0  0  0  0  0  0  0
    1.0720   24.5360   -7.6940 H   0  0  0  0  0  0  0  0  0  0  0  0
    1.4740   22.8490   -8.1660 H   0  0  0  0  0  0  0  0  0  0  0  0
   -0.1760   23.4910   -8.4430 H   0  0  0  0  0  0  0  0  0  0  0  0
    2.7810   24.9420  -14.2510 C   0  0  0  0  0  0  0  0  0  0  0  0
    2.2130   24.0620  -13.9500 H   0  0  0  0  0  0  0  0  0  0  0  0
    2.7570   24.9220  -15.3370 H   0  0  0  0  0  0  0  0  0  0  0  0
    3.8140   24.8900  -13.9060 H   0  0  0  0  0  0  0  0  0  0  0  0
    4.3610   27.0550  -16.1800 C   0  0  0  0  0  0  0  0  0  0  0  0
    5.2170   27.5780  -15.7560 H   0  0  0  0  0  0  0  0  0  0  0  0
    4.3930   27.1480  -17.2670 H   0  0  0  0  0  0  0  0  0  0  0  0
    4.4390   26.0120  -15.9120 H   0  0  0  0  0  0  0  0  0  0  0  0
  1  2  2  0  0  0  0
  2  3  1  0  0  0  0
  2 17  1  0  0  0  0
  3  4  1  0  0  0  0
  3  5  2  0  0  0  0
  5  6  1  0  0  0  0
  5  7  1  0  0  0  0
  7  8  1  0  0  0  0
  7 15  1  0  0  0  0
  7 72  1  0  0  0  0
  8  9  2  0  0  0  0
  8 10  1  0  0  0  0
 10 11  1  0  0  0  0
 11 12  1  0  0  0  0
 11 13  1  0  0  0  0
 11 14  1  0  0  0  0
 15 16  1  0  0  0  0
 15 17  1  0  0  0  0
 15 45  1  0  0  0  0
 17 18  1  0  0  0  0
 17 68  1  0  0  0  0
 18 19  1  0  0  0  0
 18 20  1  0  0  0  0
 18 58  1  0  0  0  0
 20 21  1  0  0  0  0
 20 43  1  0  0  0  0
 20 54  1  0  0  0  0
 21 22  2  0  0  0  0
 21 40  1  0  0  0  0
 22 23  1  0  0  0  0
 22 27  1  0  0  0  0
 23 24  1  0  0  0  0
 23 25  1  0  0  0  0
 23 26  1  0  0  0  0
 27 28  1  0  0  0  0
 27 29  1  0  0  0  0
 27 37  1  0  0  0  0
 29 30  1  0  0  0  0
 29 35  2  0  0  0  0
 30 31  1  0  0  0  0
 30 32  2  0  0  0  0
 32 33  1  0  0  0  0
 32 34  1  0  0  0  0
 34 35  1  0  0  0  0
 35 36  1  0  0  0  0
 37 38  1  0  0  0  0
 37 39  1  0  0  0  0
 37 40  1  0  0  0  0
 40 41  1  0  0  0  0
 40 42  1  0  0  0  0
 42 43  1  0  0  0  0
 43 44  1  0  0  0  0
 43 45  1  0  0  0  0
 45 46  1  0  0  0  0
 45 47  1  0  0  0  0
 47 48  1  0  0  0  0
 48 49  2  0  0  0  0
 48 50  1  0  0  0  0
 50 51  1  0  0  0  0
 50 52  1  0  0  0  0
 50 53  1  0  0  0  0
 54 55  1  0  0  0  0
 54 56  1  0  0  0  0
 54 57  1  0  0  0  0
 58 59  1  0  0  0  0
 58 60  1  0  0  0  0
 58 61  1  0  0  0  0
 61 62  2  0  0  0  0
 61 63  1  0  0  0  0
 63 64  1  0  0  0  0
 64 65  1  0  0  0  0
 64 66  1  0  0  0  0
 64 67  1  0  0  0  0
 68 69  1  0  0  0  0
 68 70  1  0  0  0  0
 68 71  1  0  0  0  0
 72 73  1  0  0  0  0
 72 74  1  0  0  0  0
 72 75  1  0  0  0  0
M  END
>  <rseq>
1

>  <mseq>
6

>  <S>
-5.1916776

>  <rmsd_refine>
3.1666052

>  <E_conf>
101.79819

>  <E_place>
-33.10033

>  <E_score1>
1747.8961

>  <E_refine>
-23.726713

>  <E_score2>
-5.1916776

$$$$
Nimbin
  MOE2015           3D

 75 79  0  0  1  0  0  0  0  0999 V2000
    3.5620   24.6620   -9.3600 O   0  0  0  0  0  0  0  0  0  0  0  0
    3.6330   25.5580   -8.5530 C   0  0  0  0  0  0  0  0  0  0  0  0
    4.3230   25.3110   -7.3070 C   0  0  0  0  0  0  0  0  0  0  0  0
    4.4650   24.2960   -7.0340 H   0  0  0  0  0  0  0  0  0  0  0  0
    4.7800   26.3040   -6.5220 C   0  0  0  0  0  0  0  0  0  0  0  0
    5.2670   26.0850   -5.6060 H   0  0  0  0  0  0  0  0  0  0  0  0
    4.7070   27.7800   -6.8920 C   0  0  1  0  0  0  0  0  0  0  0  0
    6.1620   28.2820   -6.8760 C   0  0  0  0  0  0  0  0  0  0  0  0
    6.5750   29.2140   -6.1820 O   0  0  0  0  0  0  0  0  0  0  0  0
    7.0270   27.6330   -7.6890 O   0  0  0  0  0  0  0  0  0  0  0  0
    8.4150   28.0170   -7.8330 C   0  0  0  0  0  0  0  0  0  0  0  0
    8.8730   27.3480   -8.5630 H   0  0  0  0  0  0  0  0  0  0  0  0
    8.9020   27.9180   -6.8620 H   0  0  0  0  0  0  0  0  0  0  0  0
    8.4510   29.0490   -8.1850 H   0  0  0  0  0  0  0  0  0  0  0  0
    4.1320   27.9700   -8.3650 C   0  0  1  0  0  0  0  0  0  0  0  0
    4.9630   27.7990   -9.0490 H   0  0  0  0  0  0  0  0  0  0  0  0
    3.0100   26.9470   -8.7960 C   0  0  1  0  0  0  0  0  0  0  0  0
    2.6710   27.1590  -10.3480 C   0  0  2  0  0  0  0  0  0  0  0  0
    3.5370   26.7730  -10.8820 H   0  0  0  0  0  0  0  0  0  0  0  0
    2.4630   28.6790  -10.8070 C   0  0  2  0  0  0  0  0  0  0  0  0
    3.0090   28.8690  -12.2140 C   0  0  0  0  0  0  0  0  0  0  0  0
    2.5430   29.2600  -13.4020 C   0  0  0  0  0  0  0  0  0  0  0  0
    1.1080   29.5160  -13.8160 C   0  0  0  0  0  0  0  0  0  0  0  0
    0.4790   28.7540  -13.3880 H   0  0  0  0  0  0  0  0  0  0  0  0
    0.8440   30.5030  -13.4620 H   0  0  0  0  0  0  0  0  0  0  0  0
    1.0630   29.4690  -14.8940 H   0  0  0  0  0  0  0  0  0  0  0  0
    3.6780   29.6570  -14.3170 C   0  0  2  0  0  0  0  0  0  0  0  0
    3.4790   30.5790  -14.8470 H   0  0  0  0  0  0  0  0  0  0  0  0
    3.9630   28.5220  -15.2780 C   0  0  0  0  0  0  0  0  0  0  0  0
    3.2630   28.2770  -16.4640 C   0  0  0  0  0  0  0  0  0  0  0  0
    2.4460   28.8330  -16.8420 H   0  0  0  0  0  0  0  0  0  0  0  0
    3.8250   27.1920  -17.0390 C   0  0  0  0  0  0  0  0  0  0  0  0
    3.5810   26.6940  -17.9420 H   0  0  0  0  0  0  0  0  0  0  0  0
    4.8410   26.7470  -16.2680 O   0  0  0  0  0  0  0  0  0  0  0  0
    4.9150   27.5610  -15.1950 C   0  0  0  0  0  0  0  0  0  0  0  0
    5.6520   27.3860  -14.4540 H   0  0  0  0  0  0  0  0  0  0  0  0
    4.8530   29.8310  -13.3120 C   0  0  0  0  0  0  0  0  0  0  0  0
    4.8330   30.8530  -12.9600 H   0  0  0  0  0  0  0  0  0  0  0  0
    5.8340   29.6230  -13.7400 H   0  0  0  0  0  0  0  0  0  0  0  0
    4.4980   28.8820  -12.1470 C   0  0  1  0  0  0  0  0  0  0  0  0
    4.9340   27.8970  -12.2440 H   0  0  0  0  0  0  0  0  0  0  0  0
    4.7160   29.4800  -10.8610 O   0  0  0  0  0  0  0  0  0  0  0  0
    3.4510   29.6570  -10.1290 C   0  0  2  0  0  0  0  0  0  0  0  0
    3.1050   30.6830  -10.2540 H   0  0  0  0  0  0  0  0  0  0  0  0
    3.6450   29.4100   -8.6320 C   0  0  2  0  0  0  0  0  0  0  0  0
    2.7040   29.5810   -8.1140 H   0  0  0  0  0  0  0  0  0  0  0  0
    4.6550   30.3700   -8.2080 O   0  0  0  0  0  0  0  0  0  0  0  0
    4.3270   31.6300   -7.8630 C   0  0  0  0  0  0  0  0  0  0  0  0
    3.1570   32.0120   -7.8670 O   0  0  0  0  0  0  0  0  0  0  0  0
    5.4480   32.5770   -7.4800 C   0  0  0  0  0  0  0  0  0  0  0  0
    6.2370   32.5230   -8.2300 H   0  0  0  0  0  0  0  0  0  0  0  0
    5.8460   32.2790   -6.5110 H   0  0  0  0  0  0  0  0  0  0  0  0
    5.0740   33.5990   -7.4240 H   0  0  0  0  0  0  0  0  0  0  0  0
    1.0320   29.2540  -10.6270 C   0  0  0  0  0  0  0  0  0  0  0  0
    1.0240   30.2880  -10.9730 H   0  0  0  0  0  0  0  0  0  0  0  0
    0.3080   28.6880  -11.2070 H   0  0  0  0  0  0  0  0  0  0  0  0
    0.7560   29.2340   -9.5760 H   0  0  0  0  0  0  0  0  0  0  0  0
    1.4740   26.2740  -10.8210 C   0  0  0  0  0  0  0  0  0  0  0  0
    0.5230   26.6750  -10.4780 H   0  0  0  0  0  0  0  0  0  0  0  0
    1.5350   25.2800  -10.3900 H   0  0  0  0  0  0  0  0  0  0  0  0
    1.4130   26.0560  -12.3310 C   0  0  0  0  0  0  0  0  0  0  0  0
    0.3680   26.2550  -12.9510 O   0  0  0  0  0  0  0  0  0  0  0  0
    2.5040   25.5630  -12.9460 O   0  0  0  0  0  0  0  0  0  0  0  0
    2.5020   25.2420  -14.3560 C   0  0  0  0  0  0  0  0  0  0  0  0
    2.1980   26.1310  -14.9090 H   0  0  0  0  0  0  0  0  0  0  0  0
    1.8010   24.4240  -14.5200 H   0  0  0  0  0  0  0  0  0  0  0  0
    3.5120   24.9430  -14.6340 H   0  0  0  0  0  0  0  0  0  0  0  0
    1.7280   27.0120   -7.9090 C   0  0  0  0  0  0  0  0  0  0  0  0
    0.9770   26.3220   -8.2860 H   0  0  0  0  0  0  0  0  0  0  0  0
    1.9630   26.6740   -6.9040 H   0  0  0  0  0  0  0  0  0  0  0  0
    1.3150   28.0150   -7.8720 H   0  0  0  0  0  0  0  0  0  0  0  0
    3.9000   28.5040   -5.7720 C   0  0  0  0  0  0  0  0  0  0  0  0
    3.9370   29.5830   -5.9100 H   0  0  0  0  0  0  0  0  0  0  0  0
    4.3600   28.2640   -4.8130 H   0  0  0  0  0  0  0  0  0  0  0  0
    2.8650   28.1820   -5.7520 H   0  0  0  0  0  0  0  0  0  0  0  0
  1  2  2  0  0  0  0
  2  3  1  0  0  0  0
  2 17  1  0  0  0  0
  3  4  1  0  0  0  0
  3  5  2  0  0  0  0
  5  6  1  0  0  0  0
  5  7  1  0  0  0  0
  7  8  1  0  0  0  0
  7 15  1  0  0  0  0
  7 72  1  0  0  0  0
  8  9  2  0  0  0  0
  8 10  1  0  0  0  0
 10 11  1  0  0  0  0
 11 12  1  0  0  0  0
 11 13  1  0  0  0  0
 11 14  1  0  0  0  0
 15 16  1  0  0  0  0
 15 17  1  0  0  0  0
 15 45  1  0  0  0  0
 17 18  1  0  0  0  0
 17 68  1  0  0  0  0
 18 19  1  0  0  0  0
 18 20  1  0  0  0  0
 18 58  1  0  0  0  0
 20 21  1  0  0  0  0
 20 43  1  0  0  0  0
 20 54  1  0  0  0  0
 21 22  2  0  0  0  0
 21 40  1  0  0  0  0
 22 23  1  0  0  0  0
 22 27  1  0  0  0  0
 23 24  1  0  0  0  0
 23 25  1  0  0  0  0
 23 26  1  0  0  0  0
 27 28  1  0  0  0  0
 27 29  1  0  0  0  0
 27 37  1  0  0  0  0
 29 30  1  0  0  0  0
 29 35  2  0  0  0  0
 30 31  1  0  0  0  0
 30 32  2  0  0  0  0
 32 33  1  0  0  0  0
 32 34  1  0  0  0  0
 34 35  1  0  0  0  0
 35 36  1  0  0  0  0
 37 38  1  0  0  0  0
 37 39  1  0  0  0  0
 37 40  1  0  0  0  0
 40 41  1  0  0  0  0
 40 42  1  0  0  0  0
 42 43  1  0  0  0  0
 43 44  1  0  0  0  0
 43 45  1  0  0  0  0
 45 46  1  0  0  0  0
 45 47  1  0  0  0  0
 47 48  1  0  0  0  0
 48 49  2  0  0  0  0
 48 50  1  0  0  0  0
 50 51  1  0  0  0  0
 50 52  1  0  0  0  0
 50 53  1  0  0  0  0
 54 55  1  0  0  0  0
 54 56  1  0  0  0  0
 54 57  1  0  0  0  0
 58 59  1  0  0  0  0
 58 60  1  0  0  0  0
 58 61  1  0  0  0  0
 61 62  2  0  0  0  0
 61 63  1  0  0  0  0
 63 64  1  0  0  0  0
 64 65  1  0  0  0  0
 64 66  1  0  0  0  0
 64 67  1  0  0  0  0
 68 69  1  0  0  0  0
 68 70  1  0  0  0  0
 68 71  1  0  0  0  0
 72 73  1  0  0  0  0
 72 74  1  0  0  0  0
 72 75  1  0  0  0  0
M  END
>  <rseq>
1

>  <mseq>
6

>  <S>
-5.1372504

>  <rmsd_refine>
2.4967453

>  <E_conf>
86.008705

>  <E_place>
-23.954437

>  <E_score1>
95.94915

>  <E_refine>
-22.2279

>  <E_score2>
-5.1372504

$$$$
Nimbin
  MOE2015           3D

 75 79  0  0  1  0  0  0  0  0999 V2000
    0.1200   27.4100  -17.6400 O   0  0  0  0  0  0  0  0  0  0  0  0
    0.4260   26.6750  -16.7290 C   0  0  0  0  0  0  0  0  0  0  0  0
    1.1980   25.4880  -17.0360 C   0  0  0  0  0  0  0  0  0  0  0  0
    1.5080   25.3760  -18.0440 H   0  0  0  0  0  0  0  0  0  0  0  0
    1.5190   24.5560  -16.1200 C   0  0  0  0  0  0  0  0  0  0  0  0
    2.0760   23.6970  -16.3960 H   0  0  0  0  0  0  0  0  0  0  0  0
    1.0860   24.6370  -14.6700 C   0  0  1  0  0  0  0  0  0  0  0  0
    2.2460   24.0670  -13.8340 C   0  0  0  0  0  0  0  0  0  0  0  0
    2.1650   23.0540  -13.1330 O   0  0  0  0  0  0  0  0  0  0  0  0
    3.4030   24.7580  -13.8450 O   0  0  0  0  0  0  0  0  0  0  0  0
    4.5020   24.4190  -12.9710 C   0  0  0  0  0  0  0  0  0  0  0  0
    5.3150   25.1100  -13.1840 H   0  0  0  0  0  0  0  0  0  0  0  0
    4.8070   23.3920  -13.1760 H   0  0  0  0  0  0  0  0  0  0  0  0
    4.1630   24.5270  -11.9400 H   0  0  0  0  0  0  0  0  0  0  0  0
    0.8560   26.1680  -14.2900 C   0  0  1  0  0  0  0  0  0  0  0  0
    1.8480   26.6060  -14.3230 H   0  0  0  0  0  0  0  0  0  0  0  0
   -0.0170   27.0140  -15.2920 C   0  0  1  0  0  0  0  0  0  0  0  0
    0.2640   28.5740  -15.0330 C   0  0  2  0  0  0  0  0  0  0  0  0
    1.0940   28.8590  -15.6810 H   0  0  0  0  0  0  0  0  0  0  0  0
    0.7210   28.9170  -13.5330 C   0  0  2  0  0  0  0  0  0  0  0  0
    2.2410   28.9990  -13.4120 C   0  0  0  0  0  0  0  0  0  0  0  0
    3.2020   29.7750  -13.9160 C   0  0  0  0  0  0  0  0  0  0  0  0
    3.1140   30.7730  -15.0520 C   0  0  0  0  0  0  0  0  0  0  0  0
    3.6030   31.6800  -14.7260 H   0  0  0  0  0  0  0  0  0  0  0  0
    3.6290   30.3380  -15.8970 H   0  0  0  0  0  0  0  0  0  0  0  0
    2.0780   30.9550  -15.2800 H   0  0  0  0  0  0  0  0  0  0  0  0
    4.4660   29.6240  -13.1010 C   0  0  2  0  0  0  0  0  0  0  0  0
    4.9770   30.5610  -12.9370 H   0  0  0  0  0  0  0  0  0  0  0  0
    5.3790   28.5990  -13.7490 C   0  0  0  0  0  0  0  0  0  0  0  0
    6.7070   28.3400  -13.3890 C   0  0  0  0  0  0  0  0  0  0  0  0
    7.2660   28.8220  -12.6300 H   0  0  0  0  0  0  0  0  0  0  0  0
    7.1490   27.3450  -14.1890 C   0  0  0  0  0  0  0  0  0  0  0  0
    8.0910   26.8640  -14.2220 H   0  0  0  0  0  0  0  0  0  0  0  0
    6.1610   26.9730  -15.0350 O   0  0  0  0  0  0  0  0  0  0  0  0
    5.0850   27.7440  -14.7590 C   0  0  0  0  0  0  0  0  0  0  0  0
    4.1870   27.6150  -15.3060 H   0  0  0  0  0  0  0  0  0  0  0  0
    3.8870   29.0240  -11.7750 C   0  0  0  0  0  0  0  0  0  0  0  0
    3.4740   29.8240  -11.1590 H   0  0  0  0  0  0  0  0  0  0  0  0
    4.6240   28.4500  -11.2140 H   0  0  0  0  0  0  0  0  0  0  0  0
    2.7460   28.1380  -12.3100 C   0  0  1  0  0  0  0  0  0  0  0  0
    3.1120   27.1840  -12.6620 H   0  0  0  0  0  0  0  0  0  0  0  0
    1.5760   28.0120  -11.5140 O   0  0  0  0  0  0  0  0  0  0  0  0
    0.3880   27.8850  -12.3950 C   0  0  2  0  0  0  0  0  0  0  0  0
   -0.5300   28.1320  -11.8600 H   0  0  0  0  0  0  0  0  0  0  0  0
    0.2790   26.4040  -12.8660 C   0  0  2  0  0  0  0  0  0  0  0  0
   -0.7730   26.1320  -12.8680 H   0  0  0  0  0  0  0  0  0  0  0  0
    0.9800   25.5660  -11.9010 O   0  0  0  0  0  0  0  0  0  0  0  0
    0.4240   25.1380  -10.7570 C   0  0  0  0  0  0  0  0  0  0  0  0
   -0.7380   25.4150  -10.4640 O   0  0  0  0  0  0  0  0  0  0  0  0
    1.2910   24.2930   -9.8350 C   0  0  0  0  0  0  0  0  0  0  0  0
    2.1950   24.8470   -9.5840 H   0  0  0  0  0  0  0  0  0  0  0  0
    1.5700   23.3720  -10.3470 H   0  0  0  0  0  0  0  0  0  0  0  0
    0.7430   24.0530   -8.9240 H   0  0  0  0  0  0  0  0  0  0  0  0
    0.2080   30.2780  -12.9920 C   0  0  0  0  0  0  0  0  0  0  0  0
    0.6030   30.4340  -11.9860 H   0  0  0  0  0  0  0  0  0  0  0  0
    0.5750   31.0860  -13.6140 H   0  0  0  0  0  0  0  0  0  0  0  0
   -0.8800   30.2800  -12.9400 H   0  0  0  0  0  0  0  0  0  0  0  0
   -0.9480   29.4380  -15.5330 C   0  0  0  0  0  0  0  0  0  0  0  0
   -1.7600   29.4150  -14.8060 H   0  0  0  0  0  0  0  0  0  0  0  0
   -1.3390   29.0190  -16.4560 H   0  0  0  0  0  0  0  0  0  0  0  0
   -0.6610   30.8920  -15.9050 C   0  0  0  0  0  0  0  0  0  0  0  0
   -1.1920   31.8160  -15.2870 O   0  0  0  0  0  0  0  0  0  0  0  0
    0.0850   31.1320  -16.9990 O   0  0  0  0  0  0  0  0  0  0  0  0
    0.3220   32.4860  -17.4540 C   0  0  0  0  0  0  0  0  0  0  0  0
    1.0370   32.9520  -16.7750 H   0  0  0  0  0  0  0  0  0  0  0  0
   -0.6270   33.0230  -17.4540 H   0  0  0  0  0  0  0  0  0  0  0  0
    0.7150   32.4410  -18.4660 H   0  0  0  0  0  0  0  0  0  0  0  0
   -1.5510   26.7030  -15.1640 C   0  0  0  0  0  0  0  0  0  0  0  0
   -2.0760   27.0340  -16.0590 H   0  0  0  0  0  0  0  0  0  0  0  0
   -1.7500   25.6490  -15.0600 H   0  0  0  0  0  0  0  0  0  0  0  0
   -1.9650   27.2120  -14.2940 H   0  0  0  0  0  0  0  0  0  0  0  0
   -0.1510   23.7090  -14.5230 C   0  0  0  0  0  0  0  0  0  0  0  0
   -0.6450   23.8870  -13.5670 H   0  0  0  0  0  0  0  0  0  0  0  0
    0.1760   22.6700  -14.5770 H   0  0  0  0  0  0  0  0  0  0  0  0
   -0.8290   23.8550  -15.3600 H   0  0  0  0  0  0  0  0  0  0  0  0
  1  2  2  0  0  0  0
  2  3  1  0  0  0  0
  2 17  1  0  0  0  0
  3  4  1  0  0  0  0
  3  5  2  0  0  0  0
  5  6  1  0  0  0  0
  5  7  1  0  0  0  0
  7  8  1  0  0  0  0
  7 15  1  0  0  0  0
  7 72  1  0  0  0  0
  8  9  2  0  0  0  0
  8 10  1  0  0  0  0
 10 11  1  0  0  0  0
 11 12  1  0  0  0  0
 11 13  1  0  0  0  0
 11 14  1  0  0  0  0
 15 16  1  0  0  0  0
 15 17  1  0  0  0  0
 15 45  1  0  0  0  0
 17 18  1  0  0  0  0
 17 68  1  0  0  0  0
 18 19  1  0  0  0  0
 18 20  1  0  0  0  0
 18 58  1  0  0  0  0
 20 21  1  0  0  0  0
 20 43  1  0  0  0  0
 20 54  1  0  0  0  0
 21 22  2  0  0  0  0
 21 40  1  0  0  0  0
 22 23  1  0  0  0  0
 22 27  1  0  0  0  0
 23 24  1  0  0  0  0
 23 25  1  0  0  0  0
 23 26  1  0  0  0  0
 27 28  1  0  0  0  0
 27 29  1  0  0  0  0
 27 37  1  0  0  0  0
 29 30  1  0  0  0  0
 29 35  2  0  0  0  0
 30 31  1  0  0  0  0
 30 32  2  0  0  0  0
 32 33  1  0  0  0  0
 32 34  1  0  0  0  0
 34 35  1  0  0  0  0
 35 36  1  0  0  0  0
 37 38  1  0  0  0  0
 37 39  1  0  0  0  0
 37 40  1  0  0  0  0
 40 41  1  0  0  0  0
 40 42  1  0  0  0  0
 42 43  1  0  0  0  0
 43 44  1  0  0  0  0
 43 45  1  0  0  0  0
 45 46  1  0  0  0  0
 45 47  1  0  0  0  0
 47 48  1  0  0  0  0
 48 49  2  0  0  0  0
 48 50  1  0  0  0  0
 50 51  1  0  0  0  0
 50 52  1  0  0  0  0
 50 53  1  0  0  0  0
 54 55  1  0  0  0  0
 54 56  1  0  0  0  0
 54 57  1  0  0  0  0
 58 59  1  0  0  0  0
 58 60  1  0  0  0  0
 58 61  1  0  0  0  0
 61 62  2  0  0  0  0
 61 63  1  0  0  0  0
 63 64  1  0  0  0  0
 64 65  1  0  0  0  0
 64 66  1  0  0  0  0
 64 67  1  0  0  0  0
 68 69  1  0  0  0  0
 68 70  1  0  0  0  0
 68 71  1  0  0  0  0
 72 73  1  0  0  0  0
 72 74  1  0  0  0  0
 72 75  1  0  0  0  0
M  END
>  <rseq>
1

>  <mseq>
6

>  <S>
-5.0684566

>  <rmsd_refine>
2.0060611

>  <E_conf>
96.877541

>  <E_place>
-44.032227

>  <E_score1>
1325.9055

>  <E_refine>
-22.228901

>  <E_score2>
-5.0684566

$$$$
Nimbin
  MOE2015           3D

 75 79  0  0  1  0  0  0  0  0999 V2000
    0.1720   32.2180  -11.0790 O   0  0  0  0  0  0  0  0  0  0  0  0
   -0.1270   31.3760  -11.8920 C   0  0  0  0  0  0  0  0  0  0  0  0
   -1.0690   31.7220  -12.9300 C   0  0  0  0  0  0  0  0  0  0  0  0
   -1.6600   32.5860  -12.7700 H   0  0  0  0  0  0  0  0  0  0  0  0
   -1.1970   30.9970  -14.0560 C   0  0  0  0  0  0  0  0  0  0  0  0
   -1.9130   31.2690  -14.7900 H   0  0  0  0  0  0  0  0  0  0  0  0
   -0.2950   29.8220  -14.4140 C   0  0  1  0  0  0  0  0  0  0  0  0
    0.3750   30.2300  -15.7330 C   0  0  0  0  0  0  0  0  0  0  0  0
    0.3650   29.5640  -16.7720 O   0  0  0  0  0  0  0  0  0  0  0  0
    1.0040   31.4180  -15.7150 O   0  0  0  0  0  0  0  0  0  0  0  0
    1.7160   31.9770  -16.8260 C   0  0  0  0  0  0  0  0  0  0  0  0
    2.0970   32.9510  -16.5200 H   0  0  0  0  0  0  0  0  0  0  0  0
    1.0210   32.0790  -17.6600 H   0  0  0  0  0  0  0  0  0  0  0  0
    2.5370   31.3030  -17.0650 H   0  0  0  0  0  0  0  0  0  0  0  0
    0.8510   29.6050  -13.3190 C   0  0  1  0  0  0  0  0  0  0  0  0
    1.6690   30.2900  -13.5520 H   0  0  0  0  0  0  0  0  0  0  0  0
    0.4140   29.9320  -11.8380 C   0  0  1  0  0  0  0  0  0  0  0  0
    1.6840   29.8310  -10.8680 C   0  0  2  0  0  0  0  0  0  0  0  0
    2.2920   30.7020  -11.0920 H   0  0  0  0  0  0  0  0  0  0  0  0
    2.5940   28.5310  -11.0730 C   0  0  2  0  0  0  0  0  0  0  0  0
    4.0580   28.9120  -10.9290 C   0  0  0  0  0  0  0  0  0  0  0  0
    5.0700   28.5460  -10.1460 C   0  0  0  0  0  0  0  0  0  0  0  0
    4.9870   27.7970   -8.8210 C   0  0  0  0  0  0  0  0  0  0  0  0
    4.5770   26.8140   -8.9920 H   0  0  0  0  0  0  0  0  0  0  0  0
    5.9750   27.7150   -8.3960 H   0  0  0  0  0  0  0  0  0  0  0  0
    4.3580   28.3660   -8.1590 H   0  0  0  0  0  0  0  0  0  0  0  0
    6.3840   28.7570  -10.8750 C   0  0  2  0  0  0  0  0  0  0  0  0
    6.7820   27.8490  -11.2680 H   0  0  0  0  0  0  0  0  0  0  0  0
    7.4140   29.2970   -9.9220 C   0  0  0  0  0  0  0  0  0  0  0  0
    8.4090   28.4890   -9.3600 C   0  0  0  0  0  0  0  0  0  0  0  0
    8.6100   27.4730   -9.5840 H   0  0  0  0  0  0  0  0  0  0  0  0
    9.0530   29.2370   -8.4450 C   0  0  0  0  0  0  0  0  0  0  0  0
    9.8480   28.9750   -7.7960 H   0  0  0  0  0  0  0  0  0  0  0  0
    8.5240   30.4810   -8.4300 O   0  0  0  0  0  0  0  0  0  0  0  0
    7.5210   30.5100   -9.3390 C   0  0  0  0  0  0  0  0  0  0  0  0
    6.9500   31.3900   -9.4710 H   0  0  0  0  0  0  0  0  0  0  0  0
    6.0340   29.5740  -12.1390 C   0  0  0  0  0  0  0  0  0  0  0  0
    6.4360   29.1020  -13.0370 H   0  0  0  0  0  0  0  0  0  0  0  0
    6.4380   30.5770  -12.0480 H   0  0  0  0  0  0  0  0  0  0  0  0
    4.4840   29.5980  -12.1790 C   0  0  1  0  0  0  0  0  0  0  0  0
    4.1220   30.5970  -12.2650 H   0  0  0  0  0  0  0  0  0  0  0  0
    3.8600   28.7600  -13.1430 O   0  0  0  0  0  0  0  0  0  0  0  0
    2.7190   28.0200  -12.5460 C   0  0  2  0  0  0  0  0  0  0  0  0
    2.9660   26.9580  -12.5550 H   0  0  0  0  0  0  0  0  0  0  0  0
    1.4540   28.1850  -13.3940 C   0  0  2  0  0  0  0  0  0  0  0  0
    0.7140   27.4600  -13.0590 H   0  0  0  0  0  0  0  0  0  0  0  0
    1.8610   27.9160  -14.7680 O   0  0  0  0  0  0  0  0  0  0  0  0
    2.0040   26.6730  -15.2590 C   0  0  0  0  0  0  0  0  0  0  0  0
    1.7920   25.6800  -14.5630 O   0  0  0  0  0  0  0  0  0  0  0  0
    2.4040   26.5360  -16.7200 C   0  0  0  0  0  0  0  0  0  0  0  0
    3.3880   26.9790  -16.8690 H   0  0  0  0  0  0  0  0  0  0  0  0
    1.6770   27.0600  -17.3390 H   0  0  0  0  0  0  0  0  0  0  0  0
    2.4260   25.4840  -17.0020 H   0  0  0  0  0  0  0  0  0  0  0  0
    2.1860   27.3100  -10.2020 C   0  0  0  0  0  0  0  0  0  0  0  0
    2.8380   26.4690  -10.4390 H   0  0  0  0  0  0  0  0  0  0  0  0
    2.2840   27.5400   -9.1440 H   0  0  0  0  0  0  0  0  0  0  0  0
    1.1610   27.0290  -10.4250 H   0  0  0  0  0  0  0  0  0  0  0  0
    1.2800   29.9980   -9.3630 C   0  0  0  0  0  0  0  0  0  0  0  0
    0.7330   29.1260   -9.0100 H   0  0  0  0  0  0  0  0  0  0  0  0
    0.5990   30.8330   -9.2390 H   0  0  0  0  0  0  0  0  0  0  0  0
    2.4220   30.2690   -8.3830 C   0  0  0  0  0  0  0  0  0  0  0  0
    2.4350   29.7040   -7.2890 O   0  0  0  0  0  0  0  0  0  0  0  0
    3.3630   31.1790   -8.6960 O   0  0  0  0  0  0  0  0  0  0  0  0
    4.4320   31.5280   -7.7770 C   0  0  0  0  0  0  0  0  0  0  0  0
    5.0610   30.6490   -7.6310 H   0  0  0  0  0  0  0  0  0  0  0  0
    3.9860   31.8490   -6.8350 H   0  0  0  0  0  0  0  0  0  0  0  0
    5.0070   32.3410   -8.2180 H   0  0  0  0  0  0  0  0  0  0  0  0
   -0.7660   29.0420  -11.3370 C   0  0  0  0  0  0  0  0  0  0  0  0
   -1.0240   29.3010  -10.3130 H   0  0  0  0  0  0  0  0  0  0  0  0
   -1.6580   29.2510  -11.9200 H   0  0  0  0  0  0  0  0  0  0  0  0
   -0.5240   27.9850  -11.4010 H   0  0  0  0  0  0  0  0  0  0  0  0
   -1.2150   28.5890  -14.6700 C   0  0  0  0  0  0  0  0  0  0  0  0
   -0.6440   27.7680  -15.1020 H   0  0  0  0  0  0  0  0  0  0  0  0
   -1.9850   28.8820  -15.3850 H   0  0  0  0  0  0  0  0  0  0  0  0
   -1.6930   28.2480  -13.7590 H   0  0  0  0  0  0  0  0  0  0  0  0
  1  2  2  0  0  0  0
  2  3  1  0  0  0  0
  2 17  1  0  0  0  0
  3  4  1  0  0  0  0
  3  5  2  0  0  0  0
  5  6  1  0  0  0  0
  5  7  1  0  0  0  0
  7  8  1  0  0  0  0
  7 15  1  0  0  0  0
  7 72  1  0  0  0  0
  8  9  2  0  0  0  0
  8 10  1  0  0  0  0
 10 11  1  0  0  0  0
 11 12  1  0  0  0  0
 11 13  1  0  0  0  0
 11 14  1  0  0  0  0
 15 16  1  0  0  0  0
 15 17  1  0  0  0  0
 15 45  1  0  0  0  0
 17 18  1  0  0  0  0
 17 68  1  0  0  0  0
 18 19  1  0  0  0  0
 18 20  1  0  0  0  0
 18 58  1  0  0  0  0
 20 21  1  0  0  0  0
 20 43  1  0  0  0  0
 20 54  1  0  0  0  0
 21 22  2  0  0  0  0
 21 40  1  0  0  0  0
 22 23  1  0  0  0  0
 22 27  1  0  0  0  0
 23 24  1  0  0  0  0
 23 25  1  0  0  0  0
 23 26  1  0  0  0  0
 27 28  1  0  0  0  0
 27 29  1  0  0  0  0
 27 37  1  0  0  0  0
 29 30  1  0  0  0  0
 29 35  2  0  0  0  0
 30 31  1  0  0  0  0
 30 32  2  0  0  0  0
 32 33  1  0  0  0  0
 32 34  1  0  0  0  0
 34 35  1  0  0  0  0
 35 36  1  0  0  0  0
 37 38  1  0  0  0  0
 37 39  1  0  0  0  0
 37 40  1  0  0  0  0
 40 41  1  0  0  0  0
 40 42  1  0  0  0  0
 42 43  1  0  0  0  0
 43 44  1  0  0  0  0
 43 45  1  0  0  0  0
 45 46  1  0  0  0  0
 45 47  1  0  0  0  0
 47 48  1  0  0  0  0
 48 49  2  0  0  0  0
 48 50  1  0  0  0  0
 50 51  1  0  0  0  0
 50 52  1  0  0  0  0
 50 53  1  0  0  0  0
 54 55  1  0  0  0  0
 54 56  1  0  0  0  0
 54 57  1  0  0  0  0
 58 59  1  0  0  0  0
 58 60  1  0  0  0  0
 58 61  1  0  0  0  0
 61 62  2  0  0  0  0
 61 63  1  0  0  0  0
 63 64  1  0  0  0  0
 64 65  1  0  0  0  0
 64 66  1  0  0  0  0
 64 67  1  0  0  0  0
 68 69  1  0  0  0  0
 68 70  1  0  0  0  0
 68 71  1  0  0  0  0
 72 73  1  0  0  0  0
 72 74  1  0  0  0  0
 72 75  1  0  0  0  0
M  END
>  <rseq>
1

>  <mseq>
6

>  <S>
-5.0593109

>  <rmsd_refine>
3.7976272

>  <E_conf>
101.11003

>  <E_place>
-19.838552

>  <E_score1>
1391.8239

>  <E_refine>
-17.727661

>  <E_score2>
-5.0593109

$$$$
Nimbin
  MOE2015           3D

 75 79  0  0  1  0  0  0  0  0999 V2000
    0.6050   24.4930  -14.1840 O   0  0  0  0  0  0  0  0  0  0  0  0
    1.3620   25.3670  -14.5380 C   0  0  0  0  0  0  0  0  0  0  0  0
    1.4050   25.6960  -15.9450 C   0  0  0  0  0  0  0  0  0  0  0  0
    0.7880   25.1140  -16.5810 H   0  0  0  0  0  0  0  0  0  0  0  0
    2.1700   26.6760  -16.4550 C   0  0  0  0  0  0  0  0  0  0  0  0
    2.1760   26.8590  -17.4980 H   0  0  0  0  0  0  0  0  0  0  0  0
    3.0800   27.5590  -15.6240 C   0  0  1  0  0  0  0  0  0  0  0  0
    2.8480   28.9980  -16.1190 C   0  0  0  0  0  0  0  0  0  0  0  0
    3.7340   29.7250  -16.5760 O   0  0  0  0  0  0  0  0  0  0  0  0
    1.5900   29.4820  -16.0230 O   0  0  0  0  0  0  0  0  0  0  0  0
    1.2500   30.8450  -16.3800 C   0  0  0  0  0  0  0  0  0  0  0  0
    0.1910   30.9920  -16.1720 H   0  0  0  0  0  0  0  0  0  0  0  0
    1.4510   30.9820  -17.4410 H   0  0  0  0  0  0  0  0  0  0  0  0
    1.8560   31.5200  -15.7750 H   0  0  0  0  0  0  0  0  0  0  0  0
    2.6760   27.4810  -14.0810 C   0  0  1  0  0  0  0  0  0  0  0  0
    1.7870   28.0980  -13.9850 H   0  0  0  0  0  0  0  0  0  0  0  0
    2.2780   26.0680  -13.5150 C   0  0  1  0  0  0  0  0  0  0  0  0
    1.4640   26.2840  -12.1550 C   0  0  2  0  0  0  0  0  0  0  0  0
    0.4240   26.4390  -12.4440 H   0  0  0  0  0  0  0  0  0  0  0  0
    1.8980   27.5890  -11.3190 C   0  0  2  0  0  0  0  0  0  0  0  0
    0.9260   28.7480  -11.5400 C   0  0  0  0  0  0  0  0  0  0  0  0
   -0.3390   29.0040  -11.2030 C   0  0  0  0  0  0  0  0  0  0  0  0
   -1.3600   28.0650  -10.6020 C   0  0  0  0  0  0  0  0  0  0  0  0
   -1.3570   28.2260   -9.5340 H   0  0  0  0  0  0  0  0  0  0  0  0
   -2.3200   28.3120  -11.0360 H   0  0  0  0  0  0  0  0  0  0  0  0
   -1.0800   27.0580  -10.8520 H   0  0  0  0  0  0  0  0  0  0  0  0
   -0.6230   30.4840  -11.3200 C   0  0  2  0  0  0  0  0  0  0  0  0
   -1.2450   30.8640  -10.5210 H   0  0  0  0  0  0  0  0  0  0  0  0
   -1.2000   30.8000  -12.6930 C   0  0  0  0  0  0  0  0  0  0  0  0
   -1.4850   32.0790  -13.1890 C   0  0  0  0  0  0  0  0  0  0  0  0
   -1.3450   33.0000  -12.6860 H   0  0  0  0  0  0  0  0  0  0  0  0
   -1.9710   31.9240  -14.4400 C   0  0  0  0  0  0  0  0  0  0  0  0
   -2.2960   32.6520  -15.1390 H   0  0  0  0  0  0  0  0  0  0  0  0
   -2.0080   30.6060  -14.7540 O   0  0  0  0  0  0  0  0  0  0  0  0
   -1.5320   29.9300  -13.6780 C   0  0  0  0  0  0  0  0  0  0  0  0
   -1.4660   28.8720  -13.7050 H   0  0  0  0  0  0  0  0  0  0  0  0
    0.8290   31.0500  -11.2500 C   0  0  0  0  0  0  0  0  0  0  0  0
    1.1570   31.0910  -10.2100 H   0  0  0  0  0  0  0  0  0  0  0  0
    0.9150   32.0310  -11.7110 H   0  0  0  0  0  0  0  0  0  0  0  0
    1.6310   29.9710  -12.0050 C   0  0  1  0  0  0  0  0  0  0  0  0
    1.5920   30.0990  -13.0790 H   0  0  0  0  0  0  0  0  0  0  0  0
    2.9420   29.7160  -11.5180 O   0  0  0  0  0  0  0  0  0  0  0  0
    3.2660   28.2860  -11.6770 C   0  0  2  0  0  0  0  0  0  0  0  0
    4.0740   27.9900  -11.0080 H   0  0  0  0  0  0  0  0  0  0  0  0
    3.7560   28.0640  -13.1350 C   0  0  2  0  0  0  0  0  0  0  0  0
    4.5920   27.3690  -13.0940 H   0  0  0  0  0  0  0  0  0  0  0  0
    4.2250   29.3300  -13.6810 O   0  0  0  0  0  0  0  0  0  0  0  0
    5.4850   29.7640  -13.5400 C   0  0  0  0  0  0  0  0  0  0  0  0
    6.2960   29.1690  -12.8310 O   0  0  0  0  0  0  0  0  0  0  0  0
    5.8880   30.9900  -14.3390 C   0  0  0  0  0  0  0  0  0  0  0  0
    5.1130   31.7520  -14.2610 H   0  0  0  0  0  0  0  0  0  0  0  0
    6.0080   30.7190  -15.3870 H   0  0  0  0  0  0  0  0  0  0  0  0
    6.8280   31.3740  -13.9510 H   0  0  0  0  0  0  0  0  0  0  0  0
    1.9380   27.3880   -9.7790 C   0  0  0  0  0  0  0  0  0  0  0  0
    2.1850   28.3410   -9.3090 H   0  0  0  0  0  0  0  0  0  0  0  0
    0.9610   27.0820   -9.4150 H   0  0  0  0  0  0  0  0  0  0  0  0
    2.7060   26.6650   -9.5110 H   0  0  0  0  0  0  0  0  0  0  0  0
    1.4620   24.9620  -11.3040 C   0  0  0  0  0  0  0  0  0  0  0  0
    2.3600   24.8820  -10.6940 H   0  0  0  0  0  0  0  0  0  0  0  0
    1.4730   24.0950  -11.9570 H   0  0  0  0  0  0  0  0  0  0  0  0
    0.2210   24.7290  -10.4430 C   0  0  0  0  0  0  0  0  0  0  0  0
    0.2990   24.6640   -9.2160 O   0  0  0  0  0  0  0  0  0  0  0  0
   -0.9450   24.5070  -11.0780 O   0  0  0  0  0  0  0  0  0  0  0  0
   -2.1720   24.2280  -10.3620 C   0  0  0  0  0  0  0  0  0  0  0  0
   -2.3850   25.0700   -9.7030 H   0  0  0  0  0  0  0  0  0  0  0  0
   -2.0340   23.3100   -9.7890 H   0  0  0  0  0  0  0  0  0  0  0  0
   -2.9680   24.1060  -11.0970 H   0  0  0  0  0  0  0  0  0  0  0  0
    3.5190   25.1450  -13.2720 C   0  0  0  0  0  0  0  0  0  0  0  0
    3.2110   24.1000  -13.2340 H   0  0  0  0  0  0  0  0  0  0  0  0
    4.2310   25.2380  -14.0750 H   0  0  0  0  0  0  0  0  0  0  0  0
    4.0070   25.4130  -12.3350 H   0  0  0  0  0  0  0  0  0  0  0  0
    4.5320   27.1290  -15.9750 C   0  0  0  0  0  0  0  0  0  0  0  0
    5.2620   27.6260  -15.3400 H   0  0  0  0  0  0  0  0  0  0  0  0
    4.7280   27.3910  -17.0160 H   0  0  0  0  0  0  0  0  0  0  0  0
    4.6260   26.0540  -15.9000 H   0  0  0  0  0  0  0  0  0  0  0  0
  1  2  2  0  0  0  0
  2  3  1  0  0  0  0
  2 17  1  0  0  0  0
  3  4  1  0  0  0  0
  3  5  2  0  0  0  0
  5  6  1  0  0  0  0
  5  7  1  0  0  0  0
  7  8  1  0  0  0  0
  7 15  1  0  0  0  0
  7 72  1  0  0  0  0
  8  9  2  0  0  0  0
  8 10  1  0  0  0  0
 10 11  1  0  0  0  0
 11 12  1  0  0  0  0
 11 13  1  0  0  0  0
 11 14  1  0  0  0  0
 15 16  1  0  0  0  0
 15 17  1  0  0  0  0
 15 45  1  0  0  0  0
 17 18  1  0  0  0  0
 17 68  1  0  0  0  0
 18 19  1  0  0  0  0
 18 20  1  0  0  0  0
 18 58  1  0  0  0  0
 20 21  1  0  0  0  0
 20 43  1  0  0  0  0
 20 54  1  0  0  0  0
 21 22  2  0  0  0  0
 21 40  1  0  0  0  0
 22 23  1  0  0  0  0
 22 27  1  0  0  0  0
 23 24  1  0  0  0  0
 23 25  1  0  0  0  0
 23 26  1  0  0  0  0
 27 28  1  0  0  0  0
 27 29  1  0  0  0  0
 27 37  1  0  0  0  0
 29 30  1  0  0  0  0
 29 35  2  0  0  0  0
 30 31  1  0  0  0  0
 30 32  2  0  0  0  0
 32 33  1  0  0  0  0
 32 34  1  0  0  0  0
 34 35  1  0  0  0  0
 35 36  1  0  0  0  0
 37 38  1  0  0  0  0
 37 39  1  0  0  0  0
 37 40  1  0  0  0  0
 40 41  1  0  0  0  0
 40 42  1  0  0  0  0
 42 43  1  0  0  0  0
 43 44  1  0  0  0  0
 43 45  1  0  0  0  0
 45 46  1  0  0  0  0
 45 47  1  0  0  0  0
 47 48  1  0  0  0  0
 48 49  2  0  0  0  0
 48 50  1  0  0  0  0
 50 51  1  0  0  0  0
 50 52  1  0  0  0  0
 50 53  1  0  0  0  0
 54 55  1  0  0  0  0
 54 56  1  0  0  0  0
 54 57  1  0  0  0  0
 58 59  1  0  0  0  0
 58 60  1  0  0  0  0
 58 61  1  0  0  0  0
 61 62  2  0  0  0  0
 61 63  1  0  0  0  0
 63 64  1  0  0  0  0
 64 65  1  0  0  0  0
 64 66  1  0  0  0  0
 64 67  1  0  0  0  0
 68 69  1  0  0  0  0
 68 70  1  0  0  0  0
 68 71  1  0  0  0  0
 72 73  1  0  0  0  0
 72 74  1  0  0  0  0
 72 75  1  0  0  0  0
M  END
>  <rseq>
1

>  <mseq>
6

>  <S>
-4.994451

>  <rmsd_refine>
2.5331194

>  <E_conf>
95.9804

>  <E_place>
-18.130226

>  <E_score1>
895.68408

>  <E_refine>
-23.051819

>  <E_score2>
-4.994451

$$$$
Linoleic acid
  MOE2015           3D

 51 50  0  0  0  0  0  0  0  0999 V2000
    1.5410   31.4960  -16.6180 C   0  0  0  0  0  0  0  0  0  0  0  0
    0.8030   31.1510  -17.3420 H   0  0  0  0  0  0  0  0  0  0  0  0
    2.1410   32.2880  -17.0650 H   0  0  0  0  0  0  0  0  0  0  0  0
    1.0160   31.8880  -15.7480 H   0  0  0  0  0  0  0  0  0  0  0  0
    2.4340   30.3240  -16.2020 C   0  0  0  0  0  0  0  0  0  0  0  0
    2.8040   29.8250  -17.0960 H   0  0  0  0  0  0  0  0  0  0  0  0
    1.8350   29.6090  -15.6350 H   0  0  0  0  0  0  0  0  0  0  0  0
    3.6270   30.7820  -15.3500 C   0  0  0  0  0  0  0  0  0  0  0  0
    3.2580   31.2350  -14.4300 H   0  0  0  0  0  0  0  0  0  0  0  0
    4.2100   31.5190  -15.9050 H   0  0  0  0  0  0  0  0  0  0  0  0
    4.5130   29.5730  -15.0110 C   0  0  0  0  0  0  0  0  0  0  0  0
    4.9010   29.1330  -15.9310 H   0  0  0  0  0  0  0  0  0  0  0  0
    3.9280   28.8290  -14.4660 H   0  0  0  0  0  0  0  0  0  0  0  0
    5.6750   30.0700  -14.1290 C   0  0  0  0  0  0  0  0  0  0  0  0
    5.2680   30.4900  -13.2200 H   0  0  0  0  0  0  0  0  0  0  0  0
    6.2880   30.7640  -14.6890 H   0  0  0  0  0  0  0  0  0  0  0  0
    6.4980   28.8370  -13.7930 C   0  0  0  0  0  0  0  0  0  0  0  0
    6.3740   28.0140  -14.4500 H   0  0  0  0  0  0  0  0  0  0  0  0
    7.3530   28.7370  -12.7630 C   0  0  0  0  0  0  0  0  0  0  0  0
    7.8840   27.8360  -12.6030 H   0  0  0  0  0  0  0  0  0  0  0  0
    7.6740   29.8220  -11.7550 C   0  0  0  0  0  0  0  0  0  0  0  0
    7.2290   30.7640  -12.0350 H   0  0  0  0  0  0  0  0  0  0  0  0
    8.7470   29.8990  -11.6660 H   0  0  0  0  0  0  0  0  0  0  0  0
    7.0570   29.3500  -10.4520 C   0  0  0  0  0  0  0  0  0  0  0  0
    6.0430   29.6310  -10.3240 H   0  0  0  0  0  0  0  0  0  0  0  0
    7.6790   28.6140   -9.5150 C   0  0  0  0  0  0  0  0  0  0  0  0
    7.1540   28.3180   -8.6430 H   0  0  0  0  0  0  0  0  0  0  0  0
    9.1150   28.1240   -9.6180 C   0  0  0  0  0  0  0  0  0  0  0  0
    9.1670   27.3440  -10.3640 H   0  0  0  0  0  0  0  0  0  0  0  0
    9.7640   28.9580   -9.8350 H   0  0  0  0  0  0  0  0  0  0  0  0
    9.4910   27.5430   -8.2400 C   0  0  0  0  0  0  0  0  0  0  0  0
    9.4250   28.3200   -7.4760 H   0  0  0  0  0  0  0  0  0  0  0  0
    8.8240   26.7160   -7.9880 H   0  0  0  0  0  0  0  0  0  0  0  0
   10.9360   27.0300   -8.3420 C   0  0  0  0  0  0  0  0  0  0  0  0
   10.9890   26.2720   -9.1240 H   0  0  0  0  0  0  0  0  0  0  0  0
   11.5980   27.8500   -8.6080 H   0  0  0  0  0  0  0  0  0  0  0  0
   11.3970   26.4090   -7.0130 C   0  0  0  0  0  0  0  0  0  0  0  0
   10.7550   25.5530   -6.8000 H   0  0  0  0  0  0  0  0  0  0  0  0
   11.2790   27.1290   -6.2020 H   0  0  0  0  0  0  0  0  0  0  0  0
   12.8560   25.9170   -7.0580 C   0  0  0  0  0  0  0  0  0  0  0  0
   13.1370   25.6930   -8.0860 H   0  0  0  0  0  0  0  0  0  0  0  0
   12.9130   24.9820   -6.5000 H   0  0  0  0  0  0  0  0  0  0  0  0
   13.8960   26.8740   -6.4490 C   0  0  0  0  0  0  0  0  0  0  0  0
   14.8760   26.4030   -6.5440 H   0  0  0  0  0  0  0  0  0  0  0  0
   13.6890   26.9970   -5.3850 H   0  0  0  0  0  0  0  0  0  0  0  0
   13.9630   28.2660   -7.0990 C   0  0  0  0  0  0  0  0  0  0  0  0
   13.0620   28.8250   -6.8490 H   0  0  0  0  0  0  0  0  0  0  0  0
   14.0190   28.1690   -8.1810 H   0  0  0  0  0  0  0  0  0  0  0  0
   15.1830   29.0520   -6.6180 C   0  0  0  0  0  0  0  0  0  0  0  0
   16.2760   28.8280   -7.1850 O   0  5  0  0  0  0  0  0  0  0  0  0
   15.0000   29.8570   -5.6800 O   0  0  0  0  0  0  0  0  0  0  0  0
  1  2  1  0  0  0  0
  1  3  1  0  0  0  0
  1  4  1  0  0  0  0
  1  5  1  0  0  0  0
  5  6  1  0  0  0  0
  5  7  1  0  0  0  0
  5  8  1  0  0  0  0
  8  9  1  0  0  0  0
  8 10  1  0  0  0  0
  8 11  1  0  0  0  0
 11 12  1  0  0  0  0
 11 13  1  0  0  0  0
 11 14  1  0  0  0  0
 14 15  1  0  0  0  0
 14 16  1  0  0  0  0
 14 17  1  0  0  0  0
 17 18  1  0  0  0  0
 17 19  2  0  0  0  0
 19 20  1  0  0  0  0
 19 21  1  0  0  0  0
 21 22  1  0  0  0  0
 21 23  1  0  0  0  0
 21 24  1  0  0  0  0
 24 25  1  0  0  0  0
 24 26  2  0  0  0  0
 26 27  1  0  0  0  0
 26 28  1  0  0  0  0
 28 29  1  0  0  0  0
 28 30  1  0  0  0  0
 28 31  1  0  0  0  0
 31 32  1  0  0  0  0
 31 33  1  0  0  0  0
 31 34  1  0  0  0  0
 34 35  1  0  0  0  0
 34 36  1  0  0  0  0
 34 37  1  0  0  0  0
 37 38  1  0  0  0  0
 37 39  1  0  0  0  0
 37 40  1  0  0  0  0
 40 41  1  0  0  0  0
 40 42  1  0  0  0  0
 40 43  1  0  0  0  0
 43 44  1  0  0  0  0
 43 45  1  0  0  0  0
 43 46  1  0  0  0  0
 46 47  1  0  0  0  0
 46 48  1  0  0  0  0
 46 49  1  0  0  0  0
 49 50  1  0  0  0  0
 49 51  2  0  0  0  0
M  CHG  1  50  -1
M  END
>  <rseq>
1

>  <mseq>
7

>  <S>
-6.5411658

>  <rmsd_refine>
1.5172849

>  <E_conf>
-80.599281

>  <E_place>
-66.133118

>  <E_score1>
0.068813726

>  <E_refine>
-33.943722

>  <E_score2>
-6.5411658

$$$$
Linoleic acid
  MOE2015           3D

 51 50  0  0  0  0  0  0  0  0999 V2000
    4.0570   31.0750  -15.7990 C   0  0  0  0  0  0  0  0  0  0  0  0
    3.9330   31.9410  -16.4480 H   0  0  0  0  0  0  0  0  0  0  0  0
    3.2580   31.0780  -15.0560 H   0  0  0  0  0  0  0  0  0  0  0  0
    3.9930   30.1640  -16.3960 H   0  0  0  0  0  0  0  0  0  0  0  0
    5.4180   31.1470  -15.1020 C   0  0  0  0  0  0  0  0  0  0  0  0
    5.4740   32.0840  -14.5470 H   0  0  0  0  0  0  0  0  0  0  0  0
    6.2080   31.1380  -15.8540 H   0  0  0  0  0  0  0  0  0  0  0  0
    5.6070   29.9700  -14.1340 C   0  0  0  0  0  0  0  0  0  0  0  0
    5.5800   29.0300  -14.6890 H   0  0  0  0  0  0  0  0  0  0  0  0
    4.7850   29.9800  -13.4150 H   0  0  0  0  0  0  0  0  0  0  0  0
    6.9430   30.0860  -13.3830 C   0  0  0  0  0  0  0  0  0  0  0  0
    7.0030   31.0580  -12.9010 H   0  0  0  0  0  0  0  0  0  0  0  0
    7.7780   29.9760  -14.0760 H   0  0  0  0  0  0  0  0  0  0  0  0
    6.9910   28.9780  -12.3130 C   0  0  0  0  0  0  0  0  0  0  0  0
    7.2480   28.0400  -12.7850 H   0  0  0  0  0  0  0  0  0  0  0  0
    6.0450   28.9380  -11.7940 H   0  0  0  0  0  0  0  0  0  0  0  0
    8.0990   29.3830  -11.3520 C   0  0  0  0  0  0  0  0  0  0  0  0
    9.0250   29.6150  -11.8120 H   0  0  0  0  0  0  0  0  0  0  0  0
    7.9720   29.4610  -10.0170 C   0  0  0  0  0  0  0  0  0  0  0  0
    8.7930   29.7600   -9.4170 H   0  0  0  0  0  0  0  0  0  0  0  0
    6.6990   29.1330   -9.2600 C   0  0  0  0  0  0  0  0  0  0  0  0
    6.3730   28.1350   -9.5130 H   0  0  0  0  0  0  0  0  0  0  0  0
    5.9550   29.8860   -9.4810 H   0  0  0  0  0  0  0  0  0  0  0  0
    7.0200   29.1880   -7.7780 C   0  0  0  0  0  0  0  0  0  0  0  0
    6.6160   30.0300   -7.2770 H   0  0  0  0  0  0  0  0  0  0  0  0
    7.7330   28.2740   -7.0980 C   0  0  0  0  0  0  0  0  0  0  0  0
    7.8710   28.3830   -6.0530 H   0  0  0  0  0  0  0  0  0  0  0  0
    8.3870   27.0410   -7.6990 C   0  0  0  0  0  0  0  0  0  0  0  0
    7.8340   26.1660   -7.3840 H   0  0  0  0  0  0  0  0  0  0  0  0
    8.4650   27.1280   -8.7730 H   0  0  0  0  0  0  0  0  0  0  0  0
    9.8010   26.9900   -7.0930 C   0  0  0  0  0  0  0  0  0  0  0  0
   10.3120   27.9400   -7.2630 H   0  0  0  0  0  0  0  0  0  0  0  0
    9.7320   26.7860   -6.0250 H   0  0  0  0  0  0  0  0  0  0  0  0
   10.5710   25.8530   -7.7850 C   0  0  0  0  0  0  0  0  0  0  0  0
    9.9600   24.9500   -7.7820 H   0  0  0  0  0  0  0  0  0  0  0  0
   10.7710   26.1300   -8.8220 H   0  0  0  0  0  0  0  0  0  0  0  0
   11.8970   25.5230   -7.0800 C   0  0  0  0  0  0  0  0  0  0  0  0
   12.3680   24.6950   -7.6090 H   0  0  0  0  0  0  0  0  0  0  0  0
   11.6830   25.1910   -6.0630 H   0  0  0  0  0  0  0  0  0  0  0  0
   12.8860   26.6970   -7.0230 C   0  0  0  0  0  0  0  0  0  0  0  0
   12.4520   27.5100   -6.4400 H   0  0  0  0  0  0  0  0  0  0  0  0
   13.0830   27.0550   -8.0350 H   0  0  0  0  0  0  0  0  0  0  0  0
   14.2080   26.2660   -6.3670 C   0  0  0  0  0  0  0  0  0  0  0  0
   14.6490   25.4590   -6.9540 H   0  0  0  0  0  0  0  0  0  0  0  0
   14.0110   25.8900   -5.3620 H   0  0  0  0  0  0  0  0  0  0  0  0
   15.2200   27.4210   -6.2780 C   0  0  0  0  0  0  0  0  0  0  0  0
   15.3580   27.8710   -7.2600 H   0  0  0  0  0  0  0  0  0  0  0  0
   16.1800   27.0170   -5.9550 H   0  0  0  0  0  0  0  0  0  0  0  0
   14.7960   28.5080   -5.2930 C   0  0  0  0  0  0  0  0  0  0  0  0
   15.0860   28.3230   -4.0920 O   0  5  0  0  0  0  0  0  0  0  0  0
   14.1970   29.5010   -5.7610 O   0  0  0  0  0  0  0  0  0  0  0  0
  1  2  1  0  0  0  0
  1  3  1  0  0  0  0
  1  4  1  0  0  0  0
  1  5  1  0  0  0  0
  5  6  1  0  0  0  0
  5  7  1  0  0  0  0
  5  8  1  0  0  0  0
  8  9  1  0  0  0  0
  8 10  1  0  0  0  0
  8 11  1  0  0  0  0
 11 12  1  0  0  0  0
 11 13  1  0  0  0  0
 11 14  1  0  0  0  0
 14 15  1  0  0  0  0
 14 16  1  0  0  0  0
 14 17  1  0  0  0  0
 17 18  1  0  0  0  0
 17 19  2  0  0  0  0
 19 20  1  0  0  0  0
 19 21  1  0  0  0  0
 21 22  1  0  0  0  0
 21 23  1  0  0  0  0
 21 24  1  0  0  0  0
 24 25  1  0  0  0  0
 24 26  2  0  0  0  0
 26 27  1  0  0  0  0
 26 28  1  0  0  0  0
 28 29  1  0  0  0  0
 28 30  1  0  0  0  0
 28 31  1  0  0  0  0
 31 32  1  0  0  0  0
 31 33  1  0  0  0  0
 31 34  1  0  0  0  0
 34 35  1  0  0  0  0
 34 36  1  0  0  0  0
 34 37  1  0  0  0  0
 37 38  1  0  0  0  0
 37 39  1  0  0  0  0
 37 40  1  0  0  0  0
 40 41  1  0  0  0  0
 40 42  1  0  0  0  0
 40 43  1  0  0  0  0
 43 44  1  0  0  0  0
 43 45  1  0  0  0  0
 43 46  1  0  0  0  0
 46 47  1  0  0  0  0
 46 48  1  0  0  0  0
 46 49  1  0  0  0  0
 49 50  1  0  0  0  0
 49 51  2  0  0  0  0
M  CHG  1  50  -1
M  END
>  <rseq>
1

>  <mseq>
7

>  <S>
-6.2416425

>  <rmsd_refine>
0.76346123

>  <E_conf>
-81.937637

>  <E_place>
-79.435127

>  <E_score1>
-5.0752888

>  <E_refine>
-30.823191

>  <E_score2>
-6.2416425

$$$$
Linoleic acid
  MOE2015           3D

 51 50  0  0  0  0  0  0  0  0999 V2000
    4.3370   27.2960  -16.9030 C   0  0  0  0  0  0  0  0  0  0  0  0
    3.9990   26.9910  -17.8930 H   0  0  0  0  0  0  0  0  0  0  0  0
    4.2320   26.4530  -16.2180 H   0  0  0  0  0  0  0  0  0  0  0  0
    5.3860   27.5810  -16.9710 H   0  0  0  0  0  0  0  0  0  0  0  0
    3.4890   28.4740  -16.4100 C   0  0  0  0  0  0  0  0  0  0  0  0
    2.4360   28.2040  -16.4990 H   0  0  0  0  0  0  0  0  0  0  0  0
    3.6750   29.3380  -17.0470 H   0  0  0  0  0  0  0  0  0  0  0  0
    3.7670   28.8570  -14.9490 C   0  0  0  0  0  0  0  0  0  0  0  0
    3.5400   28.0040  -14.3070 H   0  0  0  0  0  0  0  0  0  0  0  0
    3.1000   29.6780  -14.6810 H   0  0  0  0  0  0  0  0  0  0  0  0
    5.2230   29.2930  -14.7280 C   0  0  0  0  0  0  0  0  0  0  0  0
    5.4720   30.1090  -15.4100 H   0  0  0  0  0  0  0  0  0  0  0  0
    5.8960   28.4500  -14.8860 H   0  0  0  0  0  0  0  0  0  0  0  0
    5.3430   29.7640  -13.2710 C   0  0  0  0  0  0  0  0  0  0  0  0
    5.0880   28.9390  -12.6210 H   0  0  0  0  0  0  0  0  0  0  0  0
    4.7190   30.6340  -13.1250 H   0  0  0  0  0  0  0  0  0  0  0  0
    6.7980   30.1620  -13.0930 C   0  0  0  0  0  0  0  0  0  0  0  0
    7.2180   30.6880  -13.9120 H   0  0  0  0  0  0  0  0  0  0  0  0
    7.5430   29.9090  -12.0060 C   0  0  0  0  0  0  0  0  0  0  0  0
    8.5600   30.2040  -11.9780 H   0  0  0  0  0  0  0  0  0  0  0  0
    7.0640   29.1910  -10.7620 C   0  0  0  0  0  0  0  0  0  0  0  0
    7.3590   28.1590  -10.8390 H   0  0  0  0  0  0  0  0  0  0  0  0
    5.9990   29.3150  -10.6280 H   0  0  0  0  0  0  0  0  0  0  0  0
    7.7580   29.8960   -9.6130 C   0  0  0  0  0  0  0  0  0  0  0  0
    7.3920   30.8750   -9.4320 H   0  0  0  0  0  0  0  0  0  0  0  0
    8.7660   29.4110   -8.8710 C   0  0  0  0  0  0  0  0  0  0  0  0
    9.1930   30.0200   -8.1210 H   0  0  0  0  0  0  0  0  0  0  0  0
    9.4270   28.0480   -9.0230 C   0  0  0  0  0  0  0  0  0  0  0  0
    8.7450   27.3360   -9.4610 H   0  0  0  0  0  0  0  0  0  0  0  0
   10.3390   28.1620   -9.5930 H   0  0  0  0  0  0  0  0  0  0  0  0
    9.7650   27.5770   -7.5930 C   0  0  0  0  0  0  0  0  0  0  0  0
   10.4440   28.2770   -7.1050 H   0  0  0  0  0  0  0  0  0  0  0  0
    8.8430   27.4900   -7.0160 H   0  0  0  0  0  0  0  0  0  0  0  0
   10.4410   26.2010   -7.7150 C   0  0  0  0  0  0  0  0  0  0  0  0
    9.8400   25.5770   -8.3740 H   0  0  0  0  0  0  0  0  0  0  0  0
   11.4340   26.3180   -8.1510 H   0  0  0  0  0  0  0  0  0  0  0  0
   10.5560   25.5150   -6.3420 C   0  0  0  0  0  0  0  0  0  0  0  0
    9.5550   25.4070   -5.9210 H   0  0  0  0  0  0  0  0  0  0  0  0
   11.1350   26.1540   -5.6730 H   0  0  0  0  0  0  0  0  0  0  0  0
   11.2170   24.1230   -6.3770 C   0  0  0  0  0  0  0  0  0  0  0  0
   11.1490   23.6850   -5.3800 H   0  0  0  0  0  0  0  0  0  0  0  0
   12.2720   24.2310   -6.6340 H   0  0  0  0  0  0  0  0  0  0  0  0
   10.5540   23.1760   -7.3880 C   0  0  0  0  0  0  0  0  0  0  0  0
   10.8280   23.5090   -8.3900 H   0  0  0  0  0  0  0  0  0  0  0  0
    9.4720   23.2330   -7.2760 H   0  0  0  0  0  0  0  0  0  0  0  0
   10.9730   21.7040   -7.2310 C   0  0  0  0  0  0  0  0  0  0  0  0
   10.4090   21.2580   -6.4120 H   0  0  0  0  0  0  0  0  0  0  0  0
   12.0300   21.6510   -6.9730 H   0  0  0  0  0  0  0  0  0  0  0  0
   10.7450   20.8700   -8.4990 C   0  0  0  0  0  0  0  0  0  0  0  0
    9.9330   21.2930   -9.3540 O   0  5  0  0  0  0  0  0  0  0  0  0
   11.3860   19.8000   -8.5930 O   0  0  0  0  0  0  0  0  0  0  0  0
  1  2  1  0  0  0  0
  1  3  1  0  0  0  0
  1  4  1  0  0  0  0
  1  5  1  0  0  0  0
  5  6  1  0  0  0  0
  5  7  1  0  0  0  0
  5  8  1  0  0  0  0
  8  9  1  0  0  0  0
  8 10  1  0  0  0  0
  8 11  1  0  0  0  0
 11 12  1  0  0  0  0
 11 13  1  0  0  0  0
 11 14  1  0  0  0  0
 14 15  1  0  0  0  0
 14 16  1  0  0  0  0
 14 17  1  0  0  0  0
 17 18  1  0  0  0  0
 17 19  2  0  0  0  0
 19 20  1  0  0  0  0
 19 21  1  0  0  0  0
 21 22  1  0  0  0  0
 21 23  1  0  0  0  0
 21 24  1  0  0  0  0
 24 25  1  0  0  0  0
 24 26  2  0  0  0  0
 26 27  1  0  0  0  0
 26 28  1  0  0  0  0
 28 29  1  0  0  0  0
 28 30  1  0  0  0  0
 28 31  1  0  0  0  0
 31 32  1  0  0  0  0
 31 33  1  0  0  0  0
 31 34  1  0  0  0  0
 34 35  1  0  0  0  0
 34 36  1  0  0  0  0
 34 37  1  0  0  0  0
 37 38  1  0  0  0  0
 37 39  1  0  0  0  0
 37 40  1  0  0  0  0
 40 41  1  0  0  0  0
 40 42  1  0  0  0  0
 40 43  1  0  0  0  0
 43 44  1  0  0  0  0
 43 45  1  0  0  0  0
 43 46  1  0  0  0  0
 46 47  1  0  0  0  0
 46 48  1  0  0  0  0
 46 49  1  0  0  0  0
 49 50  1  0  0  0  0
 49 51  2  0  0  0  0
M  CHG  1  50  -1
M  END
>  <rseq>
1

>  <mseq>
7

>  <S>
-6.1903224

>  <rmsd_refine>
1.4549984

>  <E_conf>
-79.782761

>  <E_place>
-58.0667

>  <E_score1>
-3.4371505

>  <E_refine>
-28.883877

>  <E_score2>
-6.1903224

$$$$
Linoleic acid
  MOE2015           3D

 51 50  0  0  0  0  0  0  0  0999 V2000
    4.1120   31.2840  -15.8240 C   0  0  0  0  0  0  0  0  0  0  0  0
    4.0710   32.2210  -16.3760 H   0  0  0  0  0  0  0  0  0  0  0  0
    3.2870   31.2680  -15.1110 H   0  0  0  0  0  0  0  0  0  0  0  0
    4.0090   30.4470  -16.5150 H   0  0  0  0  0  0  0  0  0  0  0  0
    5.4470   31.1860  -15.0820 C   0  0  0  0  0  0  0  0  0  0  0  0
    5.5510   32.0660  -14.4470 H   0  0  0  0  0  0  0  0  0  0  0  0
    6.2650   31.1730  -15.8020 H   0  0  0  0  0  0  0  0  0  0  0  0
    5.4950   29.9220  -14.2120 C   0  0  0  0  0  0  0  0  0  0  0  0
    5.4790   29.0390  -14.8530 H   0  0  0  0  0  0  0  0  0  0  0  0
    4.5960   29.9060  -13.6000 H   0  0  0  0  0  0  0  0  0  0  0  0
    6.7640   29.8900  -13.3320 C   0  0  0  0  0  0  0  0  0  0  0  0
    6.9500   30.8630  -12.8780 H   0  0  0  0  0  0  0  0  0  0  0  0
    7.6180   29.6350  -13.9610 H   0  0  0  0  0  0  0  0  0  0  0  0
    6.6050   28.8220  -12.2220 C   0  0  0  0  0  0  0  0  0  0  0  0
    7.5870   28.6390  -11.8110 H   0  0  0  0  0  0  0  0  0  0  0  0
    6.1560   27.9290  -12.6340 H   0  0  0  0  0  0  0  0  0  0  0  0
    5.6940   29.4100  -11.1490 C   0  0  0  0  0  0  0  0  0  0  0  0
    4.8540   29.9320  -11.5220 H   0  0  0  0  0  0  0  0  0  0  0  0
    5.8520   29.3190   -9.8180 C   0  0  0  0  0  0  0  0  0  0  0  0
    5.1540   29.7940   -9.1760 H   0  0  0  0  0  0  0  0  0  0  0  0
    6.9470   28.5810   -9.0710 C   0  0  0  0  0  0  0  0  0  0  0  0
    7.5350   29.3080   -8.5300 H   0  0  0  0  0  0  0  0  0  0  0  0
    7.5370   27.9660   -9.7330 H   0  0  0  0  0  0  0  0  0  0  0  0
    6.2010   27.6820   -8.0980 C   0  0  0  0  0  0  0  0  0  0  0  0
    5.1810   27.5100   -8.3340 H   0  0  0  0  0  0  0  0  0  0  0  0
    6.7410   27.0930   -7.0190 C   0  0  0  0  0  0  0  0  0  0  0  0
    6.1510   26.4640   -6.4030 H   0  0  0  0  0  0  0  0  0  0  0  0
    8.1870   27.2120   -6.5840 C   0  0  0  0  0  0  0  0  0  0  0  0
    8.5970   28.1630   -6.8890 H   0  0  0  0  0  0  0  0  0  0  0  0
    8.2290   27.0600   -5.5140 H   0  0  0  0  0  0  0  0  0  0  0  0
    8.9160   26.0590   -7.3010 C   0  0  0  0  0  0  0  0  0  0  0  0
    8.3940   25.1220   -7.1010 H   0  0  0  0  0  0  0  0  0  0  0  0
    8.9420   26.2440   -8.3750 H   0  0  0  0  0  0  0  0  0  0  0  0
   10.3470   25.9420   -6.7600 C   0  0  0  0  0  0  0  0  0  0  0  0
   10.3230   25.8850   -5.6710 H   0  0  0  0  0  0  0  0  0  0  0  0
   10.7710   25.0090   -7.1350 H   0  0  0  0  0  0  0  0  0  0  0  0
   11.2580   27.0940   -7.2030 C   0  0  0  0  0  0  0  0  0  0  0  0
   10.8750   28.0410   -6.8230 H   0  0  0  0  0  0  0  0  0  0  0  0
   11.2960   27.1370   -8.2930 H   0  0  0  0  0  0  0  0  0  0  0  0
   12.6710   26.8720   -6.6540 C   0  0  0  0  0  0  0  0  0  0  0  0
   13.1070   25.9810   -7.1100 H   0  0  0  0  0  0  0  0  0  0  0  0
   12.6180   26.7300   -5.5730 H   0  0  0  0  0  0  0  0  0  0  0  0
   13.5560   28.0840   -6.9530 C   0  0  0  0  0  0  0  0  0  0  0  0
   13.0950   28.9810   -6.5370 H   0  0  0  0  0  0  0  0  0  0  0  0
   13.6660   28.2050   -8.0320 H   0  0  0  0  0  0  0  0  0  0  0  0
   14.9390   27.9000   -6.3200 C   0  0  0  0  0  0  0  0  0  0  0  0
   15.4440   27.0460   -6.7730 H   0  0  0  0  0  0  0  0  0  0  0  0
   14.8300   27.7100   -5.2520 H   0  0  0  0  0  0  0  0  0  0  0  0
   15.7900   29.1470   -6.5010 C   0  0  0  0  0  0  0  0  0  0  0  0
   16.6400   29.1320   -7.4190 O   0  5  0  0  0  0  0  0  0  0  0  0
   15.5930   30.0770   -5.6910 O   0  0  0  0  0  0  0  0  0  0  0  0
  1  2  1  0  0  0  0
  1  3  1  0  0  0  0
  1  4  1  0  0  0  0
  1  5  1  0  0  0  0
  5  6  1  0  0  0  0
  5  7  1  0  0  0  0
  5  8  1  0  0  0  0
  8  9  1  0  0  0  0
  8 10  1  0  0  0  0
  8 11  1  0  0  0  0
 11 12  1  0  0  0  0
 11 13  1  0  0  0  0
 11 14  1  0  0  0  0
 14 15  1  0  0  0  0
 14 16  1  0  0  0  0
 14 17  1  0  0  0  0
 17 18  1  0  0  0  0
 17 19  2  0  0  0  0
 19 20  1  0  0  0  0
 19 21  1  0  0  0  0
 21 22  1  0  0  0  0
 21 23  1  0  0  0  0
 21 24  1  0  0  0  0
 24 25  1  0  0  0  0
 24 26  2  0  0  0  0
 26 27  1  0  0  0  0
 26 28  1  0  0  0  0
 28 29  1  0  0  0  0
 28 30  1  0  0  0  0
 28 31  1  0  0  0  0
 31 32  1  0  0  0  0
 31 33  1  0  0  0  0
 31 34  1  0  0  0  0
 34 35  1  0  0  0  0
 34 36  1  0  0  0  0
 34 37  1  0  0  0  0
 37 38  1  0  0  0  0
 37 39  1  0  0  0  0
 37 40  1  0  0  0  0
 40 41  1  0  0  0  0
 40 42  1  0  0  0  0
 40 43  1  0  0  0  0
 43 44  1  0  0  0  0
 43 45  1  0  0  0  0
 43 46  1  0  0  0  0
 46 47  1  0  0  0  0
 46 48  1  0  0  0  0
 46 49  1  0  0  0  0
 49 50  1  0  0  0  0
 49 51  2  0  0  0  0
M  CHG  1  50  -1
M  END
>  <rseq>
1

>  <mseq>
7

>  <S>
-6.1238155

>  <rmsd_refine>
2.7563617

>  <E_conf>
-80.237236

>  <E_place>
-46.21048

>  <E_score1>
0.61161464

>  <E_refine>
-30.572048

>  <E_score2>
-6.1238155

$$$$
Linoleic acid
  MOE2015           3D

 51 50  0  0  0  0  0  0  0  0999 V2000
   12.2650   25.9410   -7.3460 C   0  0  0  0  0  0  0  0  0  0  0  0
   12.4730   24.9250   -7.0120 H   0  0  0  0  0  0  0  0  0  0  0  0
   12.4880   26.6360   -6.5360 H   0  0  0  0  0  0  0  0  0  0  0  0
   12.9020   26.1710   -8.2010 H   0  0  0  0  0  0  0  0  0  0  0  0
   10.7900   26.0580   -7.7450 C   0  0  0  0  0  0  0  0  0  0  0  0
   10.1680   25.8460   -6.8740 H   0  0  0  0  0  0  0  0  0  0  0  0
   10.5720   25.3220   -8.5190 H   0  0  0  0  0  0  0  0  0  0  0  0
   10.4740   27.4630   -8.2730 C   0  0  0  0  0  0  0  0  0  0  0  0
   11.0920   27.6540   -9.1530 H   0  0  0  0  0  0  0  0  0  0  0  0
   10.7120   28.1970   -7.5020 H   0  0  0  0  0  0  0  0  0  0  0  0
    8.9900   27.5840   -8.6510 C   0  0  0  0  0  0  0  0  0  0  0  0
    8.3690   27.4570   -7.7630 H   0  0  0  0  0  0  0  0  0  0  0  0
    8.7420   26.8250   -9.3900 H   0  0  0  0  0  0  0  0  0  0  0  0
    8.7790   28.9780   -9.2700 C   0  0  0  0  0  0  0  0  0  0  0  0
    9.3820   29.0380  -10.1610 H   0  0  0  0  0  0  0  0  0  0  0  0
    9.0190   29.7390   -8.5410 H   0  0  0  0  0  0  0  0  0  0  0  0
    7.2950   29.0740   -9.5910 C   0  0  0  0  0  0  0  0  0  0  0  0
    6.6650   28.8300   -8.7740 H   0  0  0  0  0  0  0  0  0  0  0  0
    6.7480   29.4430  -10.7620 C   0  0  0  0  0  0  0  0  0  0  0  0
    5.6930   29.4740  -10.8630 H   0  0  0  0  0  0  0  0  0  0  0  0
    7.4790   29.8450  -12.0320 C   0  0  0  0  0  0  0  0  0  0  0  0
    8.5480   29.8730  -11.8990 H   0  0  0  0  0  0  0  0  0  0  0  0
    7.1060   30.8000  -12.3640 H   0  0  0  0  0  0  0  0  0  0  0  0
    7.1460   28.7540  -13.0290 C   0  0  0  0  0  0  0  0  0  0  0  0
    7.6500   27.8400  -12.8470 H   0  0  0  0  0  0  0  0  0  0  0  0
    6.2990   28.8590  -14.0670 C   0  0  0  0  0  0  0  0  0  0  0  0
    6.1590   28.0290  -14.7120 H   0  0  0  0  0  0  0  0  0  0  0  0
    5.5110   30.1050  -14.4450 C   0  0  0  0  0  0  0  0  0  0  0  0
    5.2220   30.6460  -13.5550 H   0  0  0  0  0  0  0  0  0  0  0  0
    6.0950   30.6970  -15.1370 H   0  0  0  0  0  0  0  0  0  0  0  0
    4.2340   29.5990  -15.1470 C   0  0  0  0  0  0  0  0  0  0  0  0
    4.4920   29.0130  -16.0300 H   0  0  0  0  0  0  0  0  0  0  0  0
    3.6590   28.9840  -14.4530 H   0  0  0  0  0  0  0  0  0  0  0  0
    3.4050   30.8240  -15.5700 C   0  0  0  0  0  0  0  0  0  0  0  0
    3.2370   31.4660  -14.7060 H   0  0  0  0  0  0  0  0  0  0  0  0
    3.9460   31.3870  -16.3330 H   0  0  0  0  0  0  0  0  0  0  0  0
    2.0490   30.3650  -16.1280 C   0  0  0  0  0  0  0  0  0  0  0  0
    1.4970   29.8500  -15.3410 H   0  0  0  0  0  0  0  0  0  0  0  0
    2.2250   29.6630  -16.9450 H   0  0  0  0  0  0  0  0  0  0  0  0
    1.1970   31.5290  -16.6550 C   0  0  0  0  0  0  0  0  0  0  0  0
    1.7390   32.0480  -17.4400 H   0  0  0  0  0  0  0  0  0  0  0  0
    1.0040   32.2420  -15.8580 H   0  0  0  0  0  0  0  0  0  0  0  0
   -0.1540   31.0200  -17.1820 C   0  0  0  0  0  0  0  0  0  0  0  0
   -0.7740   30.7440  -16.3280 H   0  0  0  0  0  0  0  0  0  0  0  0
   -0.0060   30.1280  -17.7910 H   0  0  0  0  0  0  0  0  0  0  0  0
   -0.9000   32.0710  -18.0180 C   0  0  0  0  0  0  0  0  0  0  0  0
   -0.8930   33.0280  -17.4980 H   0  0  0  0  0  0  0  0  0  0  0  0
   -1.9370   31.7550  -18.1290 H   0  0  0  0  0  0  0  0  0  0  0  0
   -0.3090   32.2390  -19.4180 C   0  0  0  0  0  0  0  0  0  0  0  0
   -0.5620   31.3410  -20.2500 O   0  5  0  0  0  0  0  0  0  0  0  0
    0.3880   33.2540  -19.6360 O   0  0  0  0  0  0  0  0  0  0  0  0
  1  2  1  0  0  0  0
  1  3  1  0  0  0  0
  1  4  1  0  0  0  0
  1  5  1  0  0  0  0
  5  6  1  0  0  0  0
  5  7  1  0  0  0  0
  5  8  1  0  0  0  0
  8  9  1  0  0  0  0
  8 10  1  0  0  0  0
  8 11  1  0  0  0  0
 11 12  1  0  0  0  0
 11 13  1  0  0  0  0
 11 14  1  0  0  0  0
 14 15  1  0  0  0  0
 14 16  1  0  0  0  0
 14 17  1  0  0  0  0
 17 18  1  0  0  0  0
 17 19  2  0  0  0  0
 19 20  1  0  0  0  0
 19 21  1  0  0  0  0
 21 22  1  0  0  0  0
 21 23  1  0  0  0  0
 21 24  1  0  0  0  0
 24 25  1  0  0  0  0
 24 26  2  0  0  0  0
 26 27  1  0  0  0  0
 26 28  1  0  0  0  0
 28 29  1  0  0  0  0
 28 30  1  0  0  0  0
 28 31  1  0  0  0  0
 31 32  1  0  0  0  0
 31 33  1  0  0  0  0
 31 34  1  0  0  0  0
 34 35  1  0  0  0  0
 34 36  1  0  0  0  0
 34 37  1  0  0  0  0
 37 38  1  0  0  0  0
 37 39  1  0  0  0  0
 37 40  1  0  0  0  0
 40 41  1  0  0  0  0
 40 42  1  0  0  0  0
 40 43  1  0  0  0  0
 43 44  1  0  0  0  0
 43 45  1  0  0  0  0
 43 46  1  0  0  0  0
 46 47  1  0  0  0  0
 46 48  1  0  0  0  0
 46 49  1  0  0  0  0
 49 50  1  0  0  0  0
 49 51  2  0  0  0  0
M  CHG  1  50  -1
M  END
>  <rseq>
1

>  <mseq>
7

>  <S>
-6.0333586

>  <rmsd_refine>
1.754436

>  <E_conf>
-83.073631

>  <E_place>
-69.035736

>  <E_score1>
-2.3380973

>  <E_refine>
-30.146193

>  <E_score2>
-6.0333586

$$$$
Linoleic acid
  MOE2015           3D

 51 50  0  0  0  0  0  0  0  0999 V2000
    0.1750   31.8490  -16.5000 C   0  0  0  0  0  0  0  0  0  0  0  0
   -0.0040   32.5230  -17.3380 H   0  0  0  0  0  0  0  0  0  0  0  0
    0.1210   32.4170  -15.5720 H   0  0  0  0  0  0  0  0  0  0  0  0
   -0.5970   31.0790  -16.4930 H   0  0  0  0  0  0  0  0  0  0  0  0
    1.5550   31.2010  -16.6500 C   0  0  0  0  0  0  0  0  0  0  0  0
    2.3130   31.9840  -16.7090 H   0  0  0  0  0  0  0  0  0  0  0  0
    1.5600   30.6260  -17.5740 H   0  0  0  0  0  0  0  0  0  0  0  0
    1.8800   30.2590  -15.4850 C   0  0  0  0  0  0  0  0  0  0  0  0
    1.0890   29.5110  -15.4030 H   0  0  0  0  0  0  0  0  0  0  0  0
    1.9190   30.8320  -14.5580 H   0  0  0  0  0  0  0  0  0  0  0  0
    3.2270   29.5510  -15.7120 C   0  0  0  0  0  0  0  0  0  0  0  0
    4.0300   30.2860  -15.7940 H   0  0  0  0  0  0  0  0  0  0  0  0
    3.1820   28.9500  -16.6210 H   0  0  0  0  0  0  0  0  0  0  0  0
    3.4630   28.6460  -14.4890 C   0  0  0  0  0  0  0  0  0  0  0  0
    2.6460   27.9420  -14.3980 H   0  0  0  0  0  0  0  0  0  0  0  0
    3.5720   29.2560  -13.6040 H   0  0  0  0  0  0  0  0  0  0  0  0
    4.7300   27.8580  -14.7740 C   0  0  0  0  0  0  0  0  0  0  0  0
    4.5920   27.0330  -15.4260 H   0  0  0  0  0  0  0  0  0  0  0  0
    5.9470   28.1220  -14.2690 C   0  0  0  0  0  0  0  0  0  0  0  0
    6.7690   27.4950  -14.5040 H   0  0  0  0  0  0  0  0  0  0  0  0
    6.2920   29.2780  -13.3500 C   0  0  0  0  0  0  0  0  0  0  0  0
    5.6900   30.1430  -13.5900 H   0  0  0  0  0  0  0  0  0  0  0  0
    7.3480   29.4730  -13.4620 H   0  0  0  0  0  0  0  0  0  0  0  0
    5.9550   28.8060  -11.9440 C   0  0  0  0  0  0  0  0  0  0  0  0
    5.0210   28.3120  -11.8670 H   0  0  0  0  0  0  0  0  0  0  0  0
    6.7100   28.9790  -10.8450 C   0  0  0  0  0  0  0  0  0  0  0  0
    6.3790   28.6070   -9.9100 H   0  0  0  0  0  0  0  0  0  0  0  0
    8.0560   29.6790  -10.7920 C   0  0  0  0  0  0  0  0  0  0  0  0
    8.2100   30.2710  -11.6810 H   0  0  0  0  0  0  0  0  0  0  0  0
    8.0950   30.3020   -9.9090 H   0  0  0  0  0  0  0  0  0  0  0  0
    9.1420   28.5790  -10.7350 C   0  0  0  0  0  0  0  0  0  0  0  0
    8.8990   27.7530  -11.4030 H   0  0  0  0  0  0  0  0  0  0  0  0
   10.0890   29.0090  -11.0560 H   0  0  0  0  0  0  0  0  0  0  0  0
    9.2860   28.0870   -9.2830 C   0  0  0  0  0  0  0  0  0  0  0  0
    9.4290   28.9470   -8.6270 H   0  0  0  0  0  0  0  0  0  0  0  0
    8.3830   27.5570   -8.9760 H   0  0  0  0  0  0  0  0  0  0  0  0
   10.4970   27.1510   -9.1400 C   0  0  0  0  0  0  0  0  0  0  0  0
   11.3650   27.6050   -9.6190 H   0  0  0  0  0  0  0  0  0  0  0  0
   10.2830   26.2030   -9.6360 H   0  0  0  0  0  0  0  0  0  0  0  0
   10.8300   26.8990   -7.6620 C   0  0  0  0  0  0  0  0  0  0  0  0
    9.9770   26.4280   -7.1710 H   0  0  0  0  0  0  0  0  0  0  0  0
   11.0340   27.8550   -7.1780 H   0  0  0  0  0  0  0  0  0  0  0  0
   12.0630   25.9950   -7.5140 C   0  0  0  0  0  0  0  0  0  0  0  0
   12.8910   26.4060   -8.0940 H   0  0  0  0  0  0  0  0  0  0  0  0
   11.8280   24.9980   -7.8890 H   0  0  0  0  0  0  0  0  0  0  0  0
   12.5010   25.8810   -6.0470 C   0  0  0  0  0  0  0  0  0  0  0  0
   11.6860   25.4590   -5.4580 H   0  0  0  0  0  0  0  0  0  0  0  0
   12.7320   26.8730   -5.6590 H   0  0  0  0  0  0  0  0  0  0  0  0
   13.7340   24.9920   -5.8870 C   0  0  0  0  0  0  0  0  0  0  0  0
   14.8510   25.5550   -5.8890 O   0  5  0  0  0  0  0  0  0  0  0  0
   13.5390   23.7660   -5.7430 O   0  0  0  0  0  0  0  0  0  0  0  0
  1  2  1  0  0  0  0
  1  3  1  0  0  0  0
  1  4  1  0  0  0  0
  1  5  1  0  0  0  0
  5  6  1  0  0  0  0
  5  7  1  0  0  0  0
  5  8  1  0  0  0  0
  8  9  1  0  0  0  0
  8 10  1  0  0  0  0
  8 11  1  0  0  0  0
 11 12  1  0  0  0  0
 11 13  1  0  0  0  0
 11 14  1  0  0  0  0
 14 15  1  0  0  0  0
 14 16  1  0  0  0  0
 14 17  1  0  0  0  0
 17 18  1  0  0  0  0
 17 19  2  0  0  0  0
 19 20  1  0  0  0  0
 19 21  1  0  0  0  0
 21 22  1  0  0  0  0
 21 23  1  0  0  0  0
 21 24  1  0  0  0  0
 24 25  1  0  0  0  0
 24 26  2  0  0  0  0
 26 27  1  0  0  0  0
 26 28  1  0  0  0  0
 28 29  1  0  0  0  0
 28 30  1  0  0  0  0
 28 31  1  0  0  0  0
 31 32  1  0  0  0  0
 31 33  1  0  0  0  0
 31 34  1  0  0  0  0
 34 35  1  0  0  0  0
 34 36  1  0  0  0  0
 34 37  1  0  0  0  0
 37 38  1  0  0  0  0
 37 39  1  0  0  0  0
 37 40  1  0  0  0  0
 40 41  1  0  0  0  0
 40 42  1  0  0  0  0
 40 43  1  0  0  0  0
 43 44  1  0  0  0  0
 43 45  1  0  0  0  0
 43 46  1  0  0  0  0
 46 47  1  0  0  0  0
 46 48  1  0  0  0  0
 46 49  1  0  0  0  0
 49 50  1  0  0  0  0
 49 51  2  0  0  0  0
M  CHG  1  50  -1
M  END
>  <rseq>
1

>  <mseq>
7

>  <S>
-5.9157338

>  <rmsd_refine>
1.5401472

>  <E_conf>
-82.941208

>  <E_place>
-53.787327

>  <E_score1>
1.4323947

>  <E_refine>
-30.909004

>  <E_score2>
-5.9157338

$$$$
Linoleic acid
  MOE2015           3D

 51 50  0  0  0  0  0  0  0  0999 V2000
    4.3320   27.5700  -16.1160 C   0  0  0  0  0  0  0  0  0  0  0  0
    4.2730   26.6400  -16.6790 H   0  0  0  0  0  0  0  0  0  0  0  0
    4.5860   28.3810  -16.7990 H   0  0  0  0  0  0  0  0  0  0  0  0
    3.3630   27.7710  -15.6590 H   0  0  0  0  0  0  0  0  0  0  0  0
    5.4060   27.4430  -15.0310 C   0  0  0  0  0  0  0  0  0  0  0  0
    6.3660   27.2400  -15.5030 H   0  0  0  0  0  0  0  0  0  0  0  0
    5.1560   26.6100  -14.3720 H   0  0  0  0  0  0  0  0  0  0  0  0
    5.5060   28.7340  -14.2100 C   0  0  0  0  0  0  0  0  0  0  0  0
    4.5660   28.8910  -13.6780 H   0  0  0  0  0  0  0  0  0  0  0  0
    5.6750   29.5770  -14.8830 H   0  0  0  0  0  0  0  0  0  0  0  0
    6.6630   28.6490  -13.2040 C   0  0  0  0  0  0  0  0  0  0  0  0
    7.6050   28.5150  -13.7350 H   0  0  0  0  0  0  0  0  0  0  0  0
    6.5000   27.8180  -12.5180 H   0  0  0  0  0  0  0  0  0  0  0  0
    6.6690   29.9740  -12.4260 C   0  0  0  0  0  0  0  0  0  0  0  0
    5.7390   30.0690  -11.8870 H   0  0  0  0  0  0  0  0  0  0  0  0
    6.8330   30.7900  -13.1180 H   0  0  0  0  0  0  0  0  0  0  0  0
    7.8490   29.9210  -11.4720 C   0  0  0  0  0  0  0  0  0  0  0  0
    8.7820   30.1330  -11.9260 H   0  0  0  0  0  0  0  0  0  0  0  0
    7.7870   29.6330  -10.1620 C   0  0  0  0  0  0  0  0  0  0  0  0
    8.6710   29.6290   -9.5780 H   0  0  0  0  0  0  0  0  0  0  0  0
    6.5160   29.2490   -9.4250 C   0  0  0  0  0  0  0  0  0  0  0  0
    6.2210   28.2550   -9.7230 H   0  0  0  0  0  0  0  0  0  0  0  0
    5.7480   29.9850   -9.6170 H   0  0  0  0  0  0  0  0  0  0  0  0
    6.8100   29.2570   -7.9350 C   0  0  0  0  0  0  0  0  0  0  0  0
    6.3170   30.0290   -7.4030 H   0  0  0  0  0  0  0  0  0  0  0  0
    7.5930   28.3810   -7.2810 C   0  0  0  0  0  0  0  0  0  0  0  0
    7.7070   28.4560   -6.2290 H   0  0  0  0  0  0  0  0  0  0  0  0
    8.3860   27.2520   -7.9180 C   0  0  0  0  0  0  0  0  0  0  0  0
    8.0370   26.3070   -7.5260 H   0  0  0  0  0  0  0  0  0  0  0  0
    8.3330   27.3000   -8.9950 H   0  0  0  0  0  0  0  0  0  0  0  0
    9.8370   27.4840   -7.4560 C   0  0  0  0  0  0  0  0  0  0  0  0
   10.1080   28.5340   -7.5720 H   0  0  0  0  0  0  0  0  0  0  0  0
    9.9280   27.1930   -6.4110 H   0  0  0  0  0  0  0  0  0  0  0  0
   10.7600   26.6270   -8.3350 C   0  0  0  0  0  0  0  0  0  0  0  0
   10.4410   25.5840   -8.3120 H   0  0  0  0  0  0  0  0  0  0  0  0
   10.6950   26.9840   -9.3650 H   0  0  0  0  0  0  0  0  0  0  0  0
   12.2260   26.7250   -7.8790 C   0  0  0  0  0  0  0  0  0  0  0  0
   12.4970   27.7700   -7.7260 H   0  0  0  0  0  0  0  0  0  0  0  0
   12.8590   26.3340   -8.6720 H   0  0  0  0  0  0  0  0  0  0  0  0
   12.5030   25.9270   -6.5950 C   0  0  0  0  0  0  0  0  0  0  0  0
   12.1250   24.9100   -6.7120 H   0  0  0  0  0  0  0  0  0  0  0  0
   11.9930   26.4000   -5.7560 H   0  0  0  0  0  0  0  0  0  0  0  0
   14.0090   25.8620   -6.3030 C   0  0  0  0  0  0  0  0  0  0  0  0
   14.4090   26.8720   -6.2000 H   0  0  0  0  0  0  0  0  0  0  0  0
   14.5080   25.3730   -7.1400 H   0  0  0  0  0  0  0  0  0  0  0  0
   14.3240   25.0600   -5.0330 C   0  0  0  0  0  0  0  0  0  0  0  0
   15.4040   24.9270   -4.9700 H   0  0  0  0  0  0  0  0  0  0  0  0
   13.8610   24.0750   -5.1010 H   0  0  0  0  0  0  0  0  0  0  0  0
   13.8590   25.7490   -3.7520 C   0  0  0  0  0  0  0  0  0  0  0  0
   12.7430   25.4200   -3.2940 O   0  5  0  0  0  0  0  0  0  0  0  0
   14.6420   26.5820   -3.2460 O   0  0  0  0  0  0  0  0  0  0  0  0
  1  2  1  0  0  0  0
  1  3  1  0  0  0  0
  1  4  1  0  0  0  0
  1  5  1  0  0  0  0
  5  6  1  0  0  0  0
  5  7  1  0  0  0  0
  5  8  1  0  0  0  0
  8  9  1  0  0  0  0
  8 10  1  0  0  0  0
  8 11  1  0  0  0  0
 11 12  1  0  0  0  0
 11 13  1  0  0  0  0
 11 14  1  0  0  0  0
 14 15  1  0  0  0  0
 14 16  1  0  0  0  0
 14 17  1  0  0  0  0
 17 18  1  0  0  0  0
 17 19  2  0  0  0  0
 19 20  1  0  0  0  0
 19 21  1  0  0  0  0
 21 22  1  0  0  0  0
 21 23  1  0  0  0  0
 21 24  1  0  0  0  0
 24 25  1  0  0  0  0
 24 26  2  0  0  0  0
 26 27  1  0  0  0  0
 26 28  1  0  0  0  0
 28 29  1  0  0  0  0
 28 30  1  0  0  0  0
 28 31  1  0  0  0  0
 31 32  1  0  0  0  0
 31 33  1  0  0  0  0
 31 34  1  0  0  0  0
 34 35  1  0  0  0  0
 34 36  1  0  0  0  0
 34 37  1  0  0  0  0
 37 38  1  0  0  0  0
 37 39  1  0  0  0  0
 37 40  1  0  0  0  0
 40 41  1  0  0  0  0
 40 42  1  0  0  0  0
 40 43  1  0  0  0  0
 43 44  1  0  0  0  0
 43 45  1  0  0  0  0
 43 46  1  0  0  0  0
 46 47  1  0  0  0  0
 46 48  1  0  0  0  0
 46 49  1  0  0  0  0
 49 50  1  0  0  0  0
 49 51  2  0  0  0  0
M  CHG  1  50  -1
M  END
>  <rseq>
1

>  <mseq>
7

>  <S>
-5.7868361

>  <rmsd_refine>
1.1833645

>  <E_conf>
-81.799484

>  <E_place>
-64.418648

>  <E_score1>
-2.6717522

>  <E_refine>
-26.595322

>  <E_score2>
-5.7868361

$$$$
Linoleic acid
  MOE2015           3D

 51 50  0  0  0  0  0  0  0  0999 V2000
    1.4720   31.8590  -16.5560 C   0  0  0  0  0  0  0  0  0  0  0  0
    1.4680   32.9270  -16.7710 H   0  0  0  0  0  0  0  0  0  0  0  0
    0.7710   31.6580  -15.7450 H   0  0  0  0  0  0  0  0  0  0  0  0
    1.1560   31.3120  -17.4440 H   0  0  0  0  0  0  0  0  0  0  0  0
    2.8820   31.4250  -16.1430 C   0  0  0  0  0  0  0  0  0  0  0  0
    3.1940   31.9770  -15.2580 H   0  0  0  0  0  0  0  0  0  0  0  0
    3.5820   31.6660  -16.9370 H   0  0  0  0  0  0  0  0  0  0  0  0
    2.9310   29.9240  -15.8400 C   0  0  0  0  0  0  0  0  0  0  0  0
    2.5850   29.3620  -16.7090 H   0  0  0  0  0  0  0  0  0  0  0  0
    2.2760   29.7140  -14.9930 H   0  0  0  0  0  0  0  0  0  0  0  0
    4.3690   29.5090  -15.5020 C   0  0  0  0  0  0  0  0  0  0  0  0
    4.7580   30.1460  -14.7080 H   0  0  0  0  0  0  0  0  0  0  0  0
    4.9980   29.6100  -16.3840 H   0  0  0  0  0  0  0  0  0  0  0  0
    4.3280   28.0380  -15.0470 C   0  0  0  0  0  0  0  0  0  0  0  0
    3.9700   27.4200  -15.8590 H   0  0  0  0  0  0  0  0  0  0  0  0
    3.7230   27.9370  -14.1560 H   0  0  0  0  0  0  0  0  0  0  0  0
    5.7650   27.6570  -14.7470 C   0  0  0  0  0  0  0  0  0  0  0  0
    6.2400   27.1180  -15.5240 H   0  0  0  0  0  0  0  0  0  0  0  0
    6.4400   27.9600  -13.6260 C   0  0  0  0  0  0  0  0  0  0  0  0
    7.4460   27.6460  -13.5100 H   0  0  0  0  0  0  0  0  0  0  0  0
    5.8920   28.7460  -12.4500 C   0  0  0  0  0  0  0  0  0  0  0  0
    5.9170   28.1420  -11.5610 H   0  0  0  0  0  0  0  0  0  0  0  0
    4.8960   29.1160  -12.6390 H   0  0  0  0  0  0  0  0  0  0  0  0
    6.8170   29.9340  -12.3010 C   0  0  0  0  0  0  0  0  0  0  0  0
    6.5660   30.7530  -12.9240 H   0  0  0  0  0  0  0  0  0  0  0  0
    7.8770   30.0090  -11.4800 C   0  0  0  0  0  0  0  0  0  0  0  0
    8.4330   30.9040  -11.4230 H   0  0  0  0  0  0  0  0  0  0  0  0
    8.4000   28.9010  -10.5880 C   0  0  0  0  0  0  0  0  0  0  0  0
    7.9950   27.9500  -10.8900 H   0  0  0  0  0  0  0  0  0  0  0  0
    9.4790   28.9100  -10.6450 H   0  0  0  0  0  0  0  0  0  0  0  0
    7.9420   29.2440   -9.1560 C   0  0  0  0  0  0  0  0  0  0  0  0
    8.4400   30.1470   -8.7980 H   0  0  0  0  0  0  0  0  0  0  0  0
    6.8630   29.4040   -9.1520 H   0  0  0  0  0  0  0  0  0  0  0  0
    8.2680   28.0500   -8.2380 C   0  0  0  0  0  0  0  0  0  0  0  0
    7.7840   28.2230   -7.2760 H   0  0  0  0  0  0  0  0  0  0  0  0
    7.8430   27.1410   -8.6630 H   0  0  0  0  0  0  0  0  0  0  0  0
    9.7700   27.8430   -7.9900 C   0  0  0  0  0  0  0  0  0  0  0  0
   10.1660   28.7270   -7.4940 H   0  0  0  0  0  0  0  0  0  0  0  0
   10.2920   27.6990   -8.9360 H   0  0  0  0  0  0  0  0  0  0  0  0
   10.0300   26.6200   -7.1030 C   0  0  0  0  0  0  0  0  0  0  0  0
    9.6690   25.7220   -7.6070 H   0  0  0  0  0  0  0  0  0  0  0  0
    9.4940   26.7360   -6.1600 H   0  0  0  0  0  0  0  0  0  0  0  0
   11.5320   26.4760   -6.8220 C   0  0  0  0  0  0  0  0  0  0  0  0
   11.9070   27.3980   -6.3730 H   0  0  0  0  0  0  0  0  0  0  0  0
   12.0650   26.3010   -7.7590 H   0  0  0  0  0  0  0  0  0  0  0  0
   11.8040   25.3070   -5.8650 C   0  0  0  0  0  0  0  0  0  0  0  0
   11.4350   24.3840   -6.3130 H   0  0  0  0  0  0  0  0  0  0  0  0
   11.2730   25.4750   -4.9280 H   0  0  0  0  0  0  0  0  0  0  0  0
   13.2910   25.1460   -5.5490 C   0  0  0  0  0  0  0  0  0  0  0  0
   13.8190   24.0530   -5.8410 O   0  5  0  0  0  0  0  0  0  0  0  0
   13.8690   26.1090   -4.9970 O   0  0  0  0  0  0  0  0  0  0  0  0
  1  2  1  0  0  0  0
  1  3  1  0  0  0  0
  1  4  1  0  0  0  0
  1  5  1  0  0  0  0
  5  6  1  0  0  0  0
  5  7  1  0  0  0  0
  5  8  1  0  0  0  0
  8  9  1  0  0  0  0
  8 10  1  0  0  0  0
  8 11  1  0  0  0  0
 11 12  1  0  0  0  0
 11 13  1  0  0  0  0
 11 14  1  0  0  0  0
 14 15  1  0  0  0  0
 14 16  1  0  0  0  0
 14 17  1  0  0  0  0
 17 18  1  0  0  0  0
 17 19  2  0  0  0  0
 19 20  1  0  0  0  0
 19 21  1  0  0  0  0
 21 22  1  0  0  0  0
 21 23  1  0  0  0  0
 21 24  1  0  0  0  0
 24 25  1  0  0  0  0
 24 26  2  0  0  0  0
 26 27  1  0  0  0  0
 26 28  1  0  0  0  0
 28 29  1  0  0  0  0
 28 30  1  0  0  0  0
 28 31  1  0  0  0  0
 31 32  1  0  0  0  0
 31 33  1  0  0  0  0
 31 34  1  0  0  0  0
 34 35  1  0  0  0  0
 34 36  1  0  0  0  0
 34 37  1  0  0  0  0
 37 38  1  0  0  0  0
 37 39  1  0  0  0  0
 37 40  1  0  0  0  0
 40 41  1  0  0  0  0
 40 42  1  0  0  0  0
 40 43  1  0  0  0  0
 43 44  1  0  0  0  0
 43 45  1  0  0  0  0
 43 46  1  0  0  0  0
 46 47  1  0  0  0  0
 46 48  1  0  0  0  0
 46 49  1  0  0  0  0
 49 50  1  0  0  0  0
 49 51  2  0  0  0  0
M  CHG  1  50  -1
M  END
>  <rseq>
1

>  <mseq>
7

>  <S>
-5.7622938

>  <rmsd_refine>
1.0540496

>  <E_conf>
-83.684708

>  <E_place>
-73.676239

>  <E_score1>
-0.50705808

>  <E_refine>
-26.595472

>  <E_score2>
-5.7622938

$$$$
Linoleic acid
  MOE2015           3D

 51 50  0  0  0  0  0  0  0  0999 V2000
   -0.2230   32.1880  -16.6330 C   0  0  0  0  0  0  0  0  0  0  0  0
   -0.1660   32.9150  -17.4420 H   0  0  0  0  0  0  0  0  0  0  0  0
   -0.1030   32.7010  -15.6790 H   0  0  0  0  0  0  0  0  0  0  0  0
   -1.2000   31.7040  -16.6600 H   0  0  0  0  0  0  0  0  0  0  0  0
    0.8830   31.1450  -16.8080 C   0  0  0  0  0  0  0  0  0  0  0  0
    1.8450   31.6580  -16.8180 H   0  0  0  0  0  0  0  0  0  0  0  0
    0.7360   30.6430  -17.7630 H   0  0  0  0  0  0  0  0  0  0  0  0
    0.8520   30.1080  -15.6730 C   0  0  0  0  0  0  0  0  0  0  0  0
   -0.1670   29.7300  -15.5800 H   0  0  0  0  0  0  0  0  0  0  0  0
    1.1140   30.5940  -14.7320 H   0  0  0  0  0  0  0  0  0  0  0  0
    1.7760   28.8980  -15.9070 C   0  0  0  0  0  0  0  0  0  0  0  0
    1.5450   28.4300  -16.8650 H   0  0  0  0  0  0  0  0  0  0  0  0
    1.6140   28.1720  -15.1080 H   0  0  0  0  0  0  0  0  0  0  0  0
    3.2410   29.3730  -15.8740 C   0  0  0  0  0  0  0  0  0  0  0  0
    3.4270   29.8770  -14.9370 H   0  0  0  0  0  0  0  0  0  0  0  0
    3.4460   30.0030  -16.7260 H   0  0  0  0  0  0  0  0  0  0  0  0
    4.0880   28.1170  -16.0090 C   0  0  0  0  0  0  0  0  0  0  0  0
    3.9730   27.6070  -16.9320 H   0  0  0  0  0  0  0  0  0  0  0  0
    4.9400   27.6470  -15.0810 C   0  0  0  0  0  0  0  0  0  0  0  0
    5.5040   26.7700  -15.2700 H   0  0  0  0  0  0  0  0  0  0  0  0
    5.1990   28.2770  -13.7240 C   0  0  0  0  0  0  0  0  0  0  0  0
    5.7780   27.5840  -13.1290 H   0  0  0  0  0  0  0  0  0  0  0  0
    4.2600   28.5450  -13.2590 H   0  0  0  0  0  0  0  0  0  0  0  0
    6.0140   29.5300  -13.9840 C   0  0  0  0  0  0  0  0  0  0  0  0
    5.9690   29.9070  -14.9730 H   0  0  0  0  0  0  0  0  0  0  0  0
    6.7380   30.1780  -13.0600 C   0  0  0  0  0  0  0  0  0  0  0  0
    7.2770   31.0460  -13.3300 H   0  0  0  0  0  0  0  0  0  0  0  0
    6.8760   29.7820  -11.6030 C   0  0  0  0  0  0  0  0  0  0  0  0
    6.9370   30.6800  -11.0060 H   0  0  0  0  0  0  0  0  0  0  0  0
    6.0670   29.1320  -11.3020 H   0  0  0  0  0  0  0  0  0  0  0  0
    8.2150   29.0400  -11.5030 C   0  0  0  0  0  0  0  0  0  0  0  0
    8.1740   28.1310  -12.1050 H   0  0  0  0  0  0  0  0  0  0  0  0
    9.0270   29.6820  -11.8450 H   0  0  0  0  0  0  0  0  0  0  0  0
    8.4240   28.6860  -10.0270 C   0  0  0  0  0  0  0  0  0  0  0  0
    8.5300   29.5990   -9.4390 H   0  0  0  0  0  0  0  0  0  0  0  0
    7.5580   28.1300   -9.6630 H   0  0  0  0  0  0  0  0  0  0  0  0
    9.6770   27.8210   -9.8610 C   0  0  0  0  0  0  0  0  0  0  0  0
   10.5590   28.3740  -10.1840 H   0  0  0  0  0  0  0  0  0  0  0  0
    9.5820   26.9320  -10.4830 H   0  0  0  0  0  0  0  0  0  0  0  0
    9.8340   27.3980   -8.3970 C   0  0  0  0  0  0  0  0  0  0  0  0
    8.8860   26.9870   -8.0470 H   0  0  0  0  0  0  0  0  0  0  0  0
   10.0890   28.2660   -7.7880 H   0  0  0  0  0  0  0  0  0  0  0  0
   10.9230   26.3260   -8.2560 C   0  0  0  0  0  0  0  0  0  0  0  0
   11.8690   26.7170   -8.6330 H   0  0  0  0  0  0  0  0  0  0  0  0
   10.6380   25.4560   -8.8490 H   0  0  0  0  0  0  0  0  0  0  0  0
   11.1120   25.8810   -6.8000 C   0  0  0  0  0  0  0  0  0  0  0  0
   11.4560   26.7280   -6.2060 H   0  0  0  0  0  0  0  0  0  0  0  0
   11.8800   25.1070   -6.7650 H   0  0  0  0  0  0  0  0  0  0  0  0
    9.8290   25.3200   -6.1860 C   0  0  0  0  0  0  0  0  0  0  0  0
    9.4240   24.2150   -6.6080 O   0  5  0  0  0  0  0  0  0  0  0  0
    9.2650   26.0240   -5.3210 O   0  0  0  0  0  0  0  0  0  0  0  0
  1  2  1  0  0  0  0
  1  3  1  0  0  0  0
  1  4  1  0  0  0  0
  1  5  1  0  0  0  0
  5  6  1  0  0  0  0
  5  7  1  0  0  0  0
  5  8  1  0  0  0  0
  8  9  1  0  0  0  0
  8 10  1  0  0  0  0
  8 11  1  0  0  0  0
 11 12  1  0  0  0  0
 11 13  1  0  0  0  0
 11 14  1  0  0  0  0
 14 15  1  0  0  0  0
 14 16  1  0  0  0  0
 14 17  1  0  0  0  0
 17 18  1  0  0  0  0
 17 19  2  0  0  0  0
 19 20  1  0  0  0  0
 19 21  1  0  0  0  0
 21 22  1  0  0  0  0
 21 23  1  0  0  0  0
 21 24  1  0  0  0  0
 24 25  1  0  0  0  0
 24 26  2  0  0  0  0
 26 27  1  0  0  0  0
 26 28  1  0  0  0  0
 28 29  1  0  0  0  0
 28 30  1  0  0  0  0
 28 31  1  0  0  0  0
 31 32  1  0  0  0  0
 31 33  1  0  0  0  0
 31 34  1  0  0  0  0
 34 35  1  0  0  0  0
 34 36  1  0  0  0  0
 34 37  1  0  0  0  0
 37 38  1  0  0  0  0
 37 39  1  0  0  0  0
 37 40  1  0  0  0  0
 40 41  1  0  0  0  0
 40 42  1  0  0  0  0
 40 43  1  0  0  0  0
 43 44  1  0  0  0  0
 43 45  1  0  0  0  0
 43 46  1  0  0  0  0
 46 47  1  0  0  0  0
 46 48  1  0  0  0  0
 46 49  1  0  0  0  0
 49 50  1  0  0  0  0
 49 51  2  0  0  0  0
M  CHG  1  50  -1
M  END
>  <rseq>
1

>  <mseq>
7

>  <S>
-5.7089806

>  <rmsd_refine>
1.6363134

>  <E_conf>
-82.788368

>  <E_place>
-58.335041

>  <E_score1>
-2.3128219

>  <E_refine>
-26.942684

>  <E_score2>
-5.7089806

$$$$
Linoleic acid
  MOE2015           3D

 51 50  0  0  0  0  0  0  0  0999 V2000
   -2.4220   32.8850  -13.0490 C   0  0  0  0  0  0  0  0  0  0  0  0
   -3.2210   33.4680  -12.5910 H   0  0  0  0  0  0  0  0  0  0  0  0
   -1.4610   33.3230  -12.7790 H   0  0  0  0  0  0  0  0  0  0  0  0
   -2.4670   31.8620  -12.6740 H   0  0  0  0  0  0  0  0  0  0  0  0
   -2.5940   32.8900  -14.5710 C   0  0  0  0  0  0  0  0  0  0  0  0
   -2.5860   33.9210  -14.9280 H   0  0  0  0  0  0  0  0  0  0  0  0
   -3.5550   32.4380  -14.8210 H   0  0  0  0  0  0  0  0  0  0  0  0
   -1.4650   32.1060  -15.2520 C   0  0  0  0  0  0  0  0  0  0  0  0
   -1.4570   31.0840  -14.8700 H   0  0  0  0  0  0  0  0  0  0  0  0
   -0.5180   32.5840  -15.0050 H   0  0  0  0  0  0  0  0  0  0  0  0
   -1.6590   32.0810  -16.7800 C   0  0  0  0  0  0  0  0  0  0  0  0
   -1.6670   33.0950  -17.1810 H   0  0  0  0  0  0  0  0  0  0  0  0
   -2.6100   31.6010  -17.0130 H   0  0  0  0  0  0  0  0  0  0  0  0
   -0.5170   31.2620  -17.4220 C   0  0  0  0  0  0  0  0  0  0  0  0
   -0.7260   31.1680  -18.4780 H   0  0  0  0  0  0  0  0  0  0  0  0
   -0.4470   30.2920  -16.9530 H   0  0  0  0  0  0  0  0  0  0  0  0
    0.7610   32.0720  -17.2790 C   0  0  0  0  0  0  0  0  0  0  0  0
    0.7830   32.9380  -17.8870 H   0  0  0  0  0  0  0  0  0  0  0  0
    1.8050   31.7840  -16.4820 C   0  0  0  0  0  0  0  0  0  0  0  0
    2.6560   32.4160  -16.4720 H   0  0  0  0  0  0  0  0  0  0  0  0
    1.9160   30.5960  -15.5440 C   0  0  0  0  0  0  0  0  0  0  0  0
    0.9520   30.1560  -15.3400 H   0  0  0  0  0  0  0  0  0  0  0  0
    2.3870   30.9070  -14.6250 H   0  0  0  0  0  0  0  0  0  0  0  0
    2.7650   29.5910  -16.2960 C   0  0  0  0  0  0  0  0  0  0  0  0
    2.2110   29.0040  -16.9810 H   0  0  0  0  0  0  0  0  0  0  0  0
    4.0920   29.4130  -16.1750 C   0  0  0  0  0  0  0  0  0  0  0  0
    4.5820   28.6790  -16.7620 H   0  0  0  0  0  0  0  0  0  0  0  0
    5.0180   30.1700  -15.2380 C   0  0  0  0  0  0  0  0  0  0  0  0
    5.8460   30.5690  -15.8060 H   0  0  0  0  0  0  0  0  0  0  0  0
    4.4970   30.9480  -14.7020 H   0  0  0  0  0  0  0  0  0  0  0  0
    5.5260   29.1050  -14.2460 C   0  0  0  0  0  0  0  0  0  0  0  0
    4.6770   28.6140  -13.7680 H   0  0  0  0  0  0  0  0  0  0  0  0
    6.1350   28.3600  -14.7580 H   0  0  0  0  0  0  0  0  0  0  0  0
    6.3590   29.8320  -13.1820 C   0  0  0  0  0  0  0  0  0  0  0  0
    7.1980   30.3540  -13.6470 H   0  0  0  0  0  0  0  0  0  0  0  0
    5.7140   30.5500  -12.6840 H   0  0  0  0  0  0  0  0  0  0  0  0
    6.8820   28.8460  -12.1330 C   0  0  0  0  0  0  0  0  0  0  0  0
    7.6110   28.1770  -12.5930 H   0  0  0  0  0  0  0  0  0  0  0  0
    6.0430   28.2530  -11.7680 H   0  0  0  0  0  0  0  0  0  0  0  0
    7.5270   29.5690  -10.9400 C   0  0  0  0  0  0  0  0  0  0  0  0
    6.8050   30.2640  -10.5090 H   0  0  0  0  0  0  0  0  0  0  0  0
    8.3990   30.1280  -11.2790 H   0  0  0  0  0  0  0  0  0  0  0  0
    7.9440   28.5540   -9.8670 C   0  0  0  0  0  0  0  0  0  0  0  0
    8.7490   27.9270  -10.2540 H   0  0  0  0  0  0  0  0  0  0  0  0
    7.0900   27.9230   -9.6260 H   0  0  0  0  0  0  0  0  0  0  0  0
    8.4020   29.2240   -8.5660 C   0  0  0  0  0  0  0  0  0  0  0  0
    7.5760   29.7970   -8.1440 H   0  0  0  0  0  0  0  0  0  0  0  0
    9.2190   29.9080   -8.7770 H   0  0  0  0  0  0  0  0  0  0  0  0
    8.8580   28.1930   -7.5330 C   0  0  0  0  0  0  0  0  0  0  0  0
   10.0650   28.2000   -7.2080 O   0  5  0  0  0  0  0  0  0  0  0  0
    7.9870   27.4280   -7.0640 O   0  0  0  0  0  0  0  0  0  0  0  0
  1  2  1  0  0  0  0
  1  3  1  0  0  0  0
  1  4  1  0  0  0  0
  1  5  1  0  0  0  0
  5  6  1  0  0  0  0
  5  7  1  0  0  0  0
  5  8  1  0  0  0  0
  8  9  1  0  0  0  0
  8 10  1  0  0  0  0
  8 11  1  0  0  0  0
 11 12  1  0  0  0  0
 11 13  1  0  0  0  0
 11 14  1  0  0  0  0
 14 15  1  0  0  0  0
 14 16  1  0  0  0  0
 14 17  1  0  0  0  0
 17 18  1  0  0  0  0
 17 19  2  0  0  0  0
 19 20  1  0  0  0  0
 19 21  1  0  0  0  0
 21 22  1  0  0  0  0
 21 23  1  0  0  0  0
 21 24  1  0  0  0  0
 24 25  1  0  0  0  0
 24 26  2  0  0  0  0
 26 27  1  0  0  0  0
 26 28  1  0  0  0  0
 28 29  1  0  0  0  0
 28 30  1  0  0  0  0
 28 31  1  0  0  0  0
 31 32  1  0  0  0  0
 31 33  1  0  0  0  0
 31 34  1  0  0  0  0
 34 35  1  0  0  0  0
 34 36  1  0  0  0  0
 34 37  1  0  0  0  0
 37 38  1  0  0  0  0
 37 39  1  0  0  0  0
 37 40  1  0  0  0  0
 40 41  1  0  0  0  0
 40 42  1  0  0  0  0
 40 43  1  0  0  0  0
 43 44  1  0  0  0  0
 43 45  1  0  0  0  0
 43 46  1  0  0  0  0
 46 47  1  0  0  0  0
 46 48  1  0  0  0  0
 46 49  1  0  0  0  0
 49 50  1  0  0  0  0
 49 51  2  0  0  0  0
M  CHG  1  50  -1
M  END
>  <rseq>
1

>  <mseq>
7

>  <S>
-5.6915784

>  <rmsd_refine>
3.1742184

>  <E_conf>
-83.198563

>  <E_place>
-50.433411

>  <E_score1>
-1.1951903

>  <E_refine>
-27.408819

>  <E_score2>
-5.6915784

$$$$
