Aloeresin A
  MOE2015           3D

 67 70  0  0  1  0  0  0  0  0999 V2000
    3.1980   23.0050  -13.9480 C   0  0  0  0  0  0  0  0  0  0  0  0
    3.0880   22.5910  -14.9510 H   0  0  0  0  0  0  0  0  0  0  0  0
    2.4320   22.5820  -13.2980 H   0  0  0  0  0  0  0  0  0  0  0  0
    4.1970   22.7850  -13.5710 H   0  0  0  0  0  0  0  0  0  0  0  0
    3.0180   24.5150  -13.9900 C   0  0  0  0  0  0  0  0  0  0  0  0
    2.8120   25.1000  -15.2330 C   0  0  0  0  0  0  0  0  0  0  0  0
    2.7740   24.5020  -16.1070 H   0  0  0  0  0  0  0  0  0  0  0  0
    2.6400   26.4790  -15.3550 C   0  0  0  0  0  0  0  0  0  0  0  0
    2.6730   27.3250  -14.2440 C   0  0  0  0  0  0  0  0  0  0  0  0
    2.8340   26.7190  -12.9930 C   0  0  0  0  0  0  0  0  0  0  0  0
    3.0330   25.3300  -12.8300 C   0  0  0  0  0  0  0  0  0  0  0  0
    3.2170   24.8300  -11.4700 C   0  0  0  0  0  0  0  0  0  0  0  0
    3.5520   23.6780  -11.2140 O   0  0  0  0  0  0  0  0  0  0  0  0
    3.0090   25.7410  -10.3800 C   0  0  0  0  0  0  0  0  0  0  0  0
    3.0470   25.3530   -9.3950 H   0  0  0  0  0  0  0  0  0  0  0  0
    2.7760   27.0550  -10.6060 C   0  0  0  0  0  0  0  0  0  0  0  0
    2.7540   27.5240  -11.8760 O   0  0  0  0  0  0  0  0  0  0  0  0
    2.5340   28.1040   -9.5420 C   0  0  0  0  0  0  0  0  0  0  0  0
    2.1710   27.6260   -8.6410 H   0  0  0  0  0  0  0  0  0  0  0  0
    1.8570   28.8550   -9.9280 H   0  0  0  0  0  0  0  0  0  0  0  0
    3.8820   28.7350   -9.2710 C   0  0  0  0  0  0  0  0  0  0  0  0
    4.2590   29.6520   -9.9440 O   0  0  0  0  0  0  0  0  0  0  0  0
    4.7700   28.1670   -8.1860 C   0  0  0  0  0  0  0  0  0  0  0  0
    4.1750   28.0950   -7.2870 H   0  0  0  0  0  0  0  0  0  0  0  0
    5.6050   28.8370   -8.0470 H   0  0  0  0  0  0  0  0  0  0  0  0
    5.0940   27.1900   -8.5150 H   0  0  0  0  0  0  0  0  0  0  0  0
    2.5500   28.8480  -14.3630 C   0  0  1  0  0  0  0  0  0  0  0  0
    2.4400   29.3210  -13.3960 H   0  0  0  0  0  0  0  0  0  0  0  0
    3.8090   29.4060  -15.0760 C   0  0  1  0  0  0  0  0  0  0  0  0
    4.0000   28.9010  -16.0230 H   0  0  0  0  0  0  0  0  0  0  0  0
    3.5950   30.9040  -15.3690 C   0  0  2  0  0  0  0  0  0  0  0  0
    3.4930   31.4390  -14.4240 H   0  0  0  0  0  0  0  0  0  0  0  0
    2.3130   31.1010  -16.2050 C   0  0  1  0  0  0  0  0  0  0  0  0
    2.4130   30.5450  -17.1360 H   0  0  0  0  0  0  0  0  0  0  0  0
    1.1150   30.5350  -15.4210 C   0  0  2  0  0  0  0  0  0  0  0  0
    1.0160   31.0700  -14.4760 H   0  0  0  0  0  0  0  0  0  0  0  0
    1.3890   29.1350  -15.1860 O   0  0  0  0  0  0  0  0  0  0  0  0
   -0.2270   30.6340  -16.1630 C   0  0  0  0  0  0  0  0  0  0  0  0
   -0.5010   31.6840  -16.2740 H   0  0  0  0  0  0  0  0  0  0  0  0
   -0.9950   30.1400  -15.5660 H   0  0  0  0  0  0  0  0  0  0  0  0
   -0.1830   30.0300  -17.4400 O   0  0  0  0  0  0  0  0  0  0  0  0
    0.3240   30.5980  -18.0260 H   0  0  0  0  0  0  0  0  0  0  0  0
    2.0970   32.4670  -16.5060 O   0  0  0  0  0  0  0  0  0  0  0  0
    2.0440   32.9550  -15.6780 H   0  0  0  0  0  0  0  0  0  0  0  0
    4.7250   31.4100  -16.0590 O   0  0  0  0  0  0  0  0  0  0  0  0
    4.8510   30.9060  -16.8660 H   0  0  0  0  0  0  0  0  0  0  0  0
    4.9300   29.2980  -14.1450 O   0  0  0  0  0  0  0  0  0  0  0  0
    5.8840   28.3380  -14.2240 C   0  0  0  0  0  0  0  0  0  0  0  0
    5.8480   27.5470  -15.1550 O   0  0  0  0  0  0  0  0  0  0  0  0
    6.8850   28.2750  -13.1830 C   0  0  0  0  0  0  0  0  0  0  0  0
    7.5840   27.4890  -13.2850 H   0  0  0  0  0  0  0  0  0  0  0  0
    6.9250   29.1150  -12.1130 C   0  0  0  0  0  0  0  0  0  0  0  0
    6.2150   29.8990  -12.0450 H   0  0  0  0  0  0  0  0  0  0  0  0
    7.8330   28.9890  -10.9810 C   0  0  0  0  0  0  0  0  0  0  0  0
    7.5960   29.7670   -9.8380 C   0  0  0  0  0  0  0  0  0  0  0  0
    6.8340   30.5020   -9.8510 H   0  0  0  0  0  0  0  0  0  0  0  0
    8.3200   29.5600   -8.6730 C   0  0  0  0  0  0  0  0  0  0  0  0
    8.1040   30.1330   -7.8110 H   0  0  0  0  0  0  0  0  0  0  0  0
    9.3140   28.5850   -8.6500 C   0  0  0  0  0  0  0  0  0  0  0  0
    9.6300   27.8590   -9.7940 C   0  0  0  0  0  0  0  0  0  0  0  0
   10.4110   27.1430   -9.7790 H   0  0  0  0  0  0  0  0  0  0  0  0
    8.8990   28.0710  -10.9540 C   0  0  0  0  0  0  0  0  0  0  0  0
    9.1410   27.5040  -11.8120 H   0  0  0  0  0  0  0  0  0  0  0  0
    9.9870   28.3280   -7.4950 O   0  0  0  0  0  0  0  0  0  0  0  0
   10.6520   27.6270   -7.6420 H   0  0  0  0  0  0  0  0  0  0  0  0
    2.4150   26.9640  -16.6080 O   0  0  0  0  0  0  0  0  0  0  0  0
    2.1060   27.8910  -16.5540 H   0  0  0  0  0  0  0  0  0  0  0  0
  1  2  1  0  0  0  0
  1  3  1  0  0  0  0
  1  4  1  0  0  0  0
  1  5  1  0  0  0  0
  5  6  1  0  0  0  0
  5 11  2  0  0  0  0
  6  7  1  0  0  0  0
  6  8  2  0  0  0  0
  8  9  1  0  0  0  0
  8 66  1  0  0  0  0
  9 10  2  0  0  0  0
  9 27  1  0  0  0  0
 10 11  1  0  0  0  0
 10 17  1  0  0  0  0
 11 12  1  0  0  0  0
 12 13  2  0  0  0  0
 12 14  1  0  0  0  0
 14 15  1  0  0  0  0
 14 16  2  0  0  0  0
 16 17  1  0  0  0  0
 16 18  1  0  0  0  0
 18 19  1  0  0  0  0
 18 20  1  0  0  0  0
 18 21  1  0  0  0  0
 21 22  2  0  0  0  0
 21 23  1  0  0  0  0
 23 24  1  0  0  0  0
 23 25  1  0  0  0  0
 23 26  1  0  0  0  0
 27 28  1  0  0  0  0
 27 29  1  0  0  0  0
 27 37  1  0  0  0  0
 29 30  1  0  0  0  0
 29 31  1  0  0  0  0
 29 47  1  0  0  0  0
 31 32  1  0  0  0  0
 31 33  1  0  0  0  0
 31 45  1  0  0  0  0
 33 34  1  0  0  0  0
 33 35  1  0  0  0  0
 33 43  1  0  0  0  0
 35 36  1  0  0  0  0
 35 37  1  0  0  0  0
 35 38  1  0  0  0  0
 38 39  1  0  0  0  0
 38 40  1  0  0  0  0
 38 41  1  0  0  0  0
 41 42  1  0  0  0  0
 43 44  1  0  0  0  0
 45 46  1  0  0  0  0
 47 48  1  0  0  0  0
 48 49  2  0  0  0  0
 48 50  1  0  0  0  0
 50 51  1  0  0  0  0
 50 52  2  0  0  0  0
 52 53  1  0  0  0  0
 52 54  1  0  0  0  0
 54 55  1  0  0  0  0
 54 62  2  0  0  0  0
 55 56  1  0  0  0  0
 55 57  2  0  0  0  0
 57 58  1  0  0  0  0
 57 59  1  0  0  0  0
 59 60  2  0  0  0  0
 59 64  1  0  0  0  0
 60 61  1  0  0  0  0
 60 62  1  0  0  0  0
 62 63  1  0  0  0  0
 64 65  1  0  0  0  0
 66 67  1  0  0  0  0
M  END
>  <rseq>
1

>  <mseq>
1

>  <S>
-6.6087494

>  <rmsd_refine>
2.1572092

>  <E_conf>
12.15762

>  <E_place>
-56.188953

>  <E_score1>
8.1800442

>  <E_refine>
-36.236443

>  <E_score2>
-6.6087494

$$$$
Aloesin
  MOE2015           3D

 50 52  0  0  1  0  0  0  0  0999 V2000
   10.9390   22.6070   -5.2940 C   0  0  0  0  0  0  0  0  0  0  0  0
   10.0040   22.0840   -5.0930 H   0  0  0  0  0  0  0  0  0  0  0  0
   11.4880   22.7330   -4.3600 H   0  0  0  0  0  0  0  0  0  0  0  0
   11.5230   22.0400   -6.0190 H   0  0  0  0  0  0  0  0  0  0  0  0
   10.6500   23.9820   -5.8760 C   0  0  0  0  0  0  0  0  0  0  0  0
    9.3200   24.3070   -6.1110 C   0  0  0  0  0  0  0  0  0  0  0  0
    8.5510   23.6160   -5.8770 H   0  0  0  0  0  0  0  0  0  0  0  0
    8.9740   25.5390   -6.6680 C   0  0  0  0  0  0  0  0  0  0  0  0
    9.9400   26.4900   -7.0090 C   0  0  0  0  0  0  0  0  0  0  0  0
   11.2710   26.1790   -6.7010 C   0  0  0  0  0  0  0  0  0  0  0  0
   11.6650   24.9260   -6.1810 C   0  0  0  0  0  0  0  0  0  0  0  0
   13.0940   24.6900   -6.0010 C   0  0  0  0  0  0  0  0  0  0  0  0
   13.5560   23.6110   -5.6490 O   0  0  0  0  0  0  0  0  0  0  0  0
   14.0010   25.7760   -6.2440 C   0  0  0  0  0  0  0  0  0  0  0  0
   15.0310   25.6120   -6.0600 H   0  0  0  0  0  0  0  0  0  0  0  0
   13.5530   26.9770   -6.6770 C   0  0  0  0  0  0  0  0  0  0  0  0
   12.2290   27.1540   -6.9190 O   0  0  0  0  0  0  0  0  0  0  0  0
   14.4220   28.1990   -6.8920 C   0  0  0  0  0  0  0  0  0  0  0  0
   13.9160   28.9020   -7.5370 H   0  0  0  0  0  0  0  0  0  0  0  0
   15.3890   27.8900   -7.2640 H   0  0  0  0  0  0  0  0  0  0  0  0
   14.6070   28.7970   -5.5120 C   0  0  0  0  0  0  0  0  0  0  0  0
   15.5410   28.4620   -4.8390 O   0  0  0  0  0  0  0  0  0  0  0  0
   13.5900   29.7680   -4.9560 C   0  0  0  0  0  0  0  0  0  0  0  0
   13.6820   30.6840   -5.5210 H   0  0  0  0  0  0  0  0  0  0  0  0
   13.8130   29.9300   -3.9100 H   0  0  0  0  0  0  0  0  0  0  0  0
   12.6160   29.3230   -5.0890 H   0  0  0  0  0  0  0  0  0  0  0  0
    9.6210   27.7650   -7.8020 C   0  0  1  0  0  0  0  0  0  0  0  0
   10.3920   28.5110   -7.6800 H   0  0  0  0  0  0  0  0  0  0  0  0
    9.4940   27.3330   -9.2800 C   0  0  1  0  0  0  0  0  0  0  0  0
    8.7770   26.5280   -9.3820 H   0  0  0  0  0  0  0  0  0  0  0  0
    9.0220   28.5220  -10.1220 C   0  0  2  0  0  0  0  0  0  0  0  0
    9.8110   29.2600  -10.1170 H   0  0  0  0  0  0  0  0  0  0  0  0
    7.7220   29.1380   -9.5880 C   0  0  1  0  0  0  0  0  0  0  0  0
    6.9090   28.4200   -9.7130 H   0  0  0  0  0  0  0  0  0  0  0  0
    7.8620   29.4940   -8.1020 C   0  0  2  0  0  0  0  0  0  0  0  0
    8.5560   30.3300   -8.0130 H   0  0  0  0  0  0  0  0  0  0  0  0
    8.3340   28.3080   -7.3850 O   0  0  0  0  0  0  0  0  0  0  0  0
    6.5040   29.8930   -7.5050 C   0  0  0  0  0  0  0  0  0  0  0  0
    5.7830   29.0930   -7.6720 H   0  0  0  0  0  0  0  0  0  0  0  0
    6.1470   30.7990   -7.9970 H   0  0  0  0  0  0  0  0  0  0  0  0
    6.6080   30.1380   -6.1170 O   0  0  0  0  0  0  0  0  0  0  0  0
    6.8550   29.3200   -5.6770 H   0  0  0  0  0  0  0  0  0  0  0  0
    7.4340   30.3160  -10.3180 O   0  0  0  0  0  0  0  0  0  0  0  0
    7.4030   30.0900  -11.2530 H   0  0  0  0  0  0  0  0  0  0  0  0
    8.7910   28.1010  -11.4460 O   0  0  0  0  0  0  0  0  0  0  0  0
    9.4910   27.4940  -11.7030 H   0  0  0  0  0  0  0  0  0  0  0  0
   10.7660   26.9040   -9.7430 O   0  0  0  0  0  0  0  0  0  0  0  0
   11.4190   27.5830   -9.5610 H   0  0  0  0  0  0  0  0  0  0  0  0
    7.6470   25.7650   -6.8680 O   0  0  0  0  0  0  0  0  0  0  0  0
    7.5170   26.6940   -7.1520 H   0  0  0  0  0  0  0  0  0  0  0  0
  1  2  1  0  0  0  0
  1  3  1  0  0  0  0
  1  4  1  0  0  0  0
  1  5  1  0  0  0  0
  5  6  1  0  0  0  0
  5 11  2  0  0  0  0
  6  7  1  0  0  0  0
  6  8  2  0  0  0  0
  8  9  1  0  0  0  0
  8 49  1  0  0  0  0
  9 10  2  0  0  0  0
  9 27  1  0  0  0  0
 10 11  1  0  0  0  0
 10 17  1  0  0  0  0
 11 12  1  0  0  0  0
 12 13  2  0  0  0  0
 12 14  1  0  0  0  0
 14 15  1  0  0  0  0
 14 16  2  0  0  0  0
 16 17  1  0  0  0  0
 16 18  1  0  0  0  0
 18 19  1  0  0  0  0
 18 20  1  0  0  0  0
 18 21  1  0  0  0  0
 21 22  2  0  0  0  0
 21 23  1  0  0  0  0
 23 24  1  0  0  0  0
 23 25  1  0  0  0  0
 23 26  1  0  0  0  0
 27 28  1  0  0  0  0
 27 29  1  0  0  0  0
 27 37  1  0  0  0  0
 29 30  1  0  0  0  0
 29 31  1  0  0  0  0
 29 47  1  0  0  0  0
 31 32  1  0  0  0  0
 31 33  1  0  0  0  0
 31 45  1  0  0  0  0
 33 34  1  0  0  0  0
 33 35  1  0  0  0  0
 33 43  1  0  0  0  0
 35 36  1  0  0  0  0
 35 37  1  0  0  0  0
 35 38  1  0  0  0  0
 38 39  1  0  0  0  0
 38 40  1  0  0  0  0
 38 41  1  0  0  0  0
 41 42  1  0  0  0  0
 43 44  1  0  0  0  0
 45 46  1  0  0  0  0
 47 48  1  0  0  0  0
 49 50  1  0  0  0  0
M  END
>  <rseq>
1

>  <mseq>
2

>  <S>
-6.1624279

>  <rmsd_refine>
2.1007378

>  <E_conf>
48.678196

>  <E_place>
-68.868011

>  <E_score1>
3.4709451

>  <E_refine>
-30.844988

>  <E_score2>
-6.1624279

$$$$
Stearic acid
  MOE2015           3D

 55 54  0  0  0  0  0  0  0  0999 V2000
   16.0820   31.0320   -3.3910 C   0  0  0  0  0  0  0  0  0  0  0  0
   16.4420   32.0520   -3.5270 H   0  0  0  0  0  0  0  0  0  0  0  0
   16.9310   30.3800   -3.1820 H   0  0  0  0  0  0  0  0  0  0  0  0
   15.3910   31.0080   -2.5470 H   0  0  0  0  0  0  0  0  0  0  0  0
   15.3660   30.5720   -4.6630 C   0  0  0  0  0  0  0  0  0  0  0  0
   16.0640   30.6310   -5.4980 H   0  0  0  0  0  0  0  0  0  0  0  0
   14.5280   31.2420   -4.8570 H   0  0  0  0  0  0  0  0  0  0  0  0
   14.8510   29.1310   -4.5420 C   0  0  0  0  0  0  0  0  0  0  0  0
   14.1770   29.0570   -3.6860 H   0  0  0  0  0  0  0  0  0  0  0  0
   15.6950   28.4570   -4.3880 H   0  0  0  0  0  0  0  0  0  0  0  0
   14.0970   28.7260   -5.8160 C   0  0  0  0  0  0  0  0  0  0  0  0
   14.7560   28.8500   -6.6770 H   0  0  0  0  0  0  0  0  0  0  0  0
   13.2410   29.3910   -5.9340 H   0  0  0  0  0  0  0  0  0  0  0  0
   13.6230   27.2620   -5.7560 C   0  0  0  0  0  0  0  0  0  0  0  0
   12.9810   27.1130   -4.8860 H   0  0  0  0  0  0  0  0  0  0  0  0
   14.4990   26.6210   -5.6500 H   0  0  0  0  0  0  0  0  0  0  0  0
   12.8700   26.8390   -7.0300 C   0  0  0  0  0  0  0  0  0  0  0  0
   12.8190   25.7490   -7.0690 H   0  0  0  0  0  0  0  0  0  0  0  0
   13.4360   27.1810   -7.8960 H   0  0  0  0  0  0  0  0  0  0  0  0
   11.4410   27.4000   -7.0960 C   0  0  0  0  0  0  0  0  0  0  0  0
   11.4570   28.4560   -6.8320 H   0  0  0  0  0  0  0  0  0  0  0  0
   10.8090   26.8720   -6.3800 H   0  0  0  0  0  0  0  0  0  0  0  0
   10.8530   27.2600   -8.5070 C   0  0  0  0  0  0  0  0  0  0  0  0
   10.7010   26.2070   -8.7500 H   0  0  0  0  0  0  0  0  0  0  0  0
   11.5610   27.6800   -9.2230 H   0  0  0  0  0  0  0  0  0  0  0  0
    9.5180   28.0140   -8.6110 C   0  0  0  0  0  0  0  0  0  0  0  0
    9.5900   28.9570   -8.0680 H   0  0  0  0  0  0  0  0  0  0  0  0
    8.7260   27.4160   -8.1580 H   0  0  0  0  0  0  0  0  0  0  0  0
    9.1660   28.3250  -10.0710 C   0  0  0  0  0  0  0  0  0  0  0  0
    8.9780   27.3930  -10.5980 H   0  0  0  0  0  0  0  0  0  0  0  0
   10.0070   28.8270  -10.5490 H   0  0  0  0  0  0  0  0  0  0  0  0
    7.9340   29.2420  -10.1380 C   0  0  0  0  0  0  0  0  0  0  0  0
    8.1190   30.1230   -9.5210 H   0  0  0  0  0  0  0  0  0  0  0  0
    7.0690   28.7180   -9.7300 H   0  0  0  0  0  0  0  0  0  0  0  0
    7.6130   29.7290  -11.5590 C   0  0  0  0  0  0  0  0  0  0  0  0
    8.4990   30.1900  -11.9920 H   0  0  0  0  0  0  0  0  0  0  0  0
    6.8370   30.4880  -11.4800 H   0  0  0  0  0  0  0  0  0  0  0  0
    7.1240   28.6020  -12.4800 C   0  0  0  0  0  0  0  0  0  0  0  0
    6.2760   28.1020  -12.0140 H   0  0  0  0  0  0  0  0  0  0  0  0
    7.9240   27.8750  -12.6060 H   0  0  0  0  0  0  0  0  0  0  0  0
    6.7030   29.0740  -13.8780 C   0  0  0  0  0  0  0  0  0  0  0  0
    6.4630   28.1900  -14.4700 H   0  0  0  0  0  0  0  0  0  0  0  0
    7.5370   29.5970  -14.3450 H   0  0  0  0  0  0  0  0  0  0  0  0
    5.4810   30.0010  -13.8420 C   0  0  0  0  0  0  0  0  0  0  0  0
    5.8040   30.9900  -13.5300 H   0  0  0  0  0  0  0  0  0  0  0  0
    4.7610   29.6150  -13.1190 H   0  0  0  0  0  0  0  0  0  0  0  0
    4.7860   30.1250  -15.2040 C   0  0  0  0  0  0  0  0  0  0  0  0
    4.4770   29.1350  -15.5420 H   0  0  0  0  0  0  0  0  0  0  0  0
    5.4690   30.5600  -15.9350 H   0  0  0  0  0  0  0  0  0  0  0  0
    3.5490   31.0260  -15.0590 C   0  0  0  0  0  0  0  0  0  0  0  0
    3.8800   32.0370  -14.8240 H   0  0  0  0  0  0  0  0  0  0  0  0
    2.9300   30.6660  -14.2370 H   0  0  0  0  0  0  0  0  0  0  0  0
    2.6750   31.0660  -16.3100 C   0  0  0  0  0  0  0  0  0  0  0  0
    2.4170   32.1920  -16.7870 O   0  0  0  0  0  0  0  0  0  0  0  0
    2.2650   29.9750  -16.7620 O   0  5  0  0  0  0  0  0  0  0  0  0
  1  2  1  0  0  0  0
  1  3  1  0  0  0  0
  1  4  1  0  0  0  0
  1  5  1  0  0  0  0
  5  6  1  0  0  0  0
  5  7  1  0  0  0  0
  5  8  1  0  0  0  0
  8  9  1  0  0  0  0
  8 10  1  0  0  0  0
  8 11  1  0  0  0  0
 11 12  1  0  0  0  0
 11 13  1  0  0  0  0
 11 14  1  0  0  0  0
 14 15  1  0  0  0  0
 14 16  1  0  0  0  0
 14 17  1  0  0  0  0
 17 18  1  0  0  0  0
 17 19  1  0  0  0  0
 17 20  1  0  0  0  0
 20 21  1  0  0  0  0
 20 22  1  0  0  0  0
 20 23  1  0  0  0  0
 23 24  1  0  0  0  0
 23 25  1  0  0  0  0
 23 26  1  0  0  0  0
 26 27  1  0  0  0  0
 26 28  1  0  0  0  0
 26 29  1  0  0  0  0
 29 30  1  0  0  0  0
 29 31  1  0  0  0  0
 29 32  1  0  0  0  0
 32 33  1  0  0  0  0
 32 34  1  0  0  0  0
 32 35  1  0  0  0  0
 35 36  1  0  0  0  0
 35 37  1  0  0  0  0
 35 38  1  0  0  0  0
 38 39  1  0  0  0  0
 38 40  1  0  0  0  0
 38 41  1  0  0  0  0
 41 42  1  0  0  0  0
 41 43  1  0  0  0  0
 41 44  1  0  0  0  0
 44 45  1  0  0  0  0
 44 46  1  0  0  0  0
 44 47  1  0  0  0  0
 47 48  1  0  0  0  0
 47 49  1  0  0  0  0
 47 50  1  0  0  0  0
 50 51  1  0  0  0  0
 50 52  1  0  0  0  0
 50 53  1  0  0  0  0
 53 54  2  0  0  0  0
 53 55  1  0  0  0  0
M  CHG  1  55  -1
M  END
>  <rseq>
1

>  <mseq>
3

>  <S>
-6.8552785

>  <rmsd_refine>
2.4786153

>  <E_conf>
-80.56237

>  <E_place>
-64.466644

>  <E_score1>
3.1698875

>  <E_refine>
-32.314693

>  <E_score2>
-6.8552785

$$$$
Palmitic acid
  MOE2015           3D

 49 48  0  0  0  0  0  0  0  0999 V2000
   14.3330   24.9030   -5.6680 C   0  0  0  0  0  0  0  0  0  0  0  0
   14.7560   24.8800   -4.6630 H   0  0  0  0  0  0  0  0  0  0  0  0
   15.0820   25.2790   -6.3650 H   0  0  0  0  0  0  0  0  0  0  0  0
   14.0370   23.8950   -5.9560 H   0  0  0  0  0  0  0  0  0  0  0  0
   13.1060   25.8110   -5.6820 C   0  0  0  0  0  0  0  0  0  0  0  0
   13.4000   26.8090   -5.3530 H   0  0  0  0  0  0  0  0  0  0  0  0
   12.3620   25.4150   -4.9900 H   0  0  0  0  0  0  0  0  0  0  0  0
   12.5070   25.8930   -7.0920 C   0  0  0  0  0  0  0  0  0  0  0  0
   12.2220   24.8950   -7.4300 H   0  0  0  0  0  0  0  0  0  0  0  0
   13.2510   26.3030   -7.7740 H   0  0  0  0  0  0  0  0  0  0  0  0
   11.2720   26.7990   -7.0860 C   0  0  0  0  0  0  0  0  0  0  0  0
   11.5460   27.7670   -6.6620 H   0  0  0  0  0  0  0  0  0  0  0  0
   10.4950   26.3490   -6.4660 H   0  0  0  0  0  0  0  0  0  0  0  0
   10.7350   27.0120   -8.5050 C   0  0  0  0  0  0  0  0  0  0  0  0
   10.4330   26.0580   -8.9380 H   0  0  0  0  0  0  0  0  0  0  0  0
   11.5210   27.4520   -9.1200 H   0  0  0  0  0  0  0  0  0  0  0  0
    9.5320   27.9600   -8.4570 C   0  0  0  0  0  0  0  0  0  0  0  0
    9.7960   28.8460   -7.8800 H   0  0  0  0  0  0  0  0  0  0  0  0
    8.6980   27.4620   -7.9610 H   0  0  0  0  0  0  0  0  0  0  0  0
    9.1050   28.3900   -9.8640 C   0  0  0  0  0  0  0  0  0  0  0  0
    8.7070   27.5270  -10.3920 H   0  0  0  0  0  0  0  0  0  0  0  0
    9.9680   28.7700  -10.4130 H   0  0  0  0  0  0  0  0  0  0  0  0
    8.0440   29.4930   -9.7660 C   0  0  0  0  0  0  0  0  0  0  0  0
    8.4750   30.3540   -9.2540 H   0  0  0  0  0  0  0  0  0  0  0  0
    7.2050   29.1390   -9.1640 H   0  0  0  0  0  0  0  0  0  0  0  0
    7.5260   29.9510  -11.1360 C   0  0  0  0  0  0  0  0  0  0  0  0
    8.3640   30.2150  -11.7820 H   0  0  0  0  0  0  0  0  0  0  0  0
    6.9280   30.8400  -10.9750 H   0  0  0  0  0  0  0  0  0  0  0  0
    6.6650   28.8750  -11.8150 C   0  0  0  0  0  0  0  0  0  0  0  0
    6.0740   28.3690  -11.0530 H   0  0  0  0  0  0  0  0  0  0  0  0
    7.3220   28.1450  -12.2870 H   0  0  0  0  0  0  0  0  0  0  0  0
    5.6760   29.4030  -12.8620 C   0  0  0  0  0  0  0  0  0  0  0  0
    4.9230   30.0100  -12.3580 H   0  0  0  0  0  0  0  0  0  0  0  0
    5.1760   28.5410  -13.3060 H   0  0  0  0  0  0  0  0  0  0  0  0
    6.3260   30.2320  -13.9780 C   0  0  0  0  0  0  0  0  0  0  0  0
    7.2450   29.7380  -14.2960 H   0  0  0  0  0  0  0  0  0  0  0  0
    6.5910   31.2170  -13.5990 H   0  0  0  0  0  0  0  0  0  0  0  0
    5.4140   30.3880  -15.2040 C   0  0  0  0  0  0  0  0  0  0  0  0
    5.3000   29.4050  -15.6620 H   0  0  0  0  0  0  0  0  0  0  0  0
    5.9230   31.0360  -15.9200 H   0  0  0  0  0  0  0  0  0  0  0  0
    4.0090   30.9570  -14.9340 C   0  0  0  0  0  0  0  0  0  0  0  0
    4.0930   31.9560  -14.5060 H   0  0  0  0  0  0  0  0  0  0  0  0
    3.4660   30.3060  -14.2480 H   0  0  0  0  0  0  0  0  0  0  0  0
    3.2590   31.0250  -16.2680 C   0  0  0  0  0  0  0  0  0  0  0  0
    3.2910   30.0450  -16.7460 H   0  0  0  0  0  0  0  0  0  0  0  0
    3.7830   31.7370  -16.9000 H   0  0  0  0  0  0  0  0  0  0  0  0
    1.7950   31.4480  -16.1590 C   0  0  0  0  0  0  0  0  0  0  0  0
    1.4590   32.4850  -16.7750 O   0  0  0  0  0  0  0  0  0  0  0  0
    1.0290   30.6980  -15.5170 O   0  5  0  0  0  0  0  0  0  0  0  0
  1  2  1  0  0  0  0
  1  3  1  0  0  0  0
  1  4  1  0  0  0  0
  1  5  1  0  0  0  0
  5  6  1  0  0  0  0
  5  7  1  0  0  0  0
  5  8  1  0  0  0  0
  8  9  1  0  0  0  0
  8 10  1  0  0  0  0
  8 11  1  0  0  0  0
 11 12  1  0  0  0  0
 11 13  1  0  0  0  0
 11 14  1  0  0  0  0
 14 15  1  0  0  0  0
 14 16  1  0  0  0  0
 14 17  1  0  0  0  0
 17 18  1  0  0  0  0
 17 19  1  0  0  0  0
 17 20  1  0  0  0  0
 20 21  1  0  0  0  0
 20 22  1  0  0  0  0
 20 23  1  0  0  0  0
 23 24  1  0  0  0  0
 23 25  1  0  0  0  0
 23 26  1  0  0  0  0
 26 27  1  0  0  0  0
 26 28  1  0  0  0  0
 26 29  1  0  0  0  0
 29 30  1  0  0  0  0
 29 31  1  0  0  0  0
 29 32  1  0  0  0  0
 32 33  1  0  0  0  0
 32 34  1  0  0  0  0
 32 35  1  0  0  0  0
 35 36  1  0  0  0  0
 35 37  1  0  0  0  0
 35 38  1  0  0  0  0
 38 39  1  0  0  0  0
 38 40  1  0  0  0  0
 38 41  1  0  0  0  0
 41 42  1  0  0  0  0
 41 43  1  0  0  0  0
 41 44  1  0  0  0  0
 44 45  1  0  0  0  0
 44 46  1  0  0  0  0
 44 47  1  0  0  0  0
 47 48  2  0  0  0  0
 47 49  1  0  0  0  0
M  CHG  1  49  -1
M  END
>  <rseq>
1

>  <mseq>
4

>  <S>
-6.3659873

>  <rmsd_refine>
2.2957699

>  <E_conf>
-61.948635

>  <E_place>
-55.637196

>  <E_score1>
-1.294703

>  <E_refine>
-31.870914

>  <E_score2>
-6.3659873

$$$$
Nimbin
  MOE2015           3D

 75 79  0  0  1  0  0  0  0  0999 V2000
    3.1780   24.6910   -9.4310 O   0  0  0  0  0  0  0  0  0  0  0  0
    3.5200   25.0260   -8.3200 C   0  0  0  0  0  0  0  0  0  0  0  0
    4.1320   24.0320   -7.4710 C   0  0  0  0  0  0  0  0  0  0  0  0
    4.1130   23.0330   -7.8250 H   0  0  0  0  0  0  0  0  0  0  0  0
    4.7100   24.3270   -6.2950 C   0  0  0  0  0  0  0  0  0  0  0  0
    5.1350   23.5580   -5.7010 H   0  0  0  0  0  0  0  0  0  0  0  0
    4.8290   25.7310   -5.7290 C   0  0  1  0  0  0  0  0  0  0  0  0
    6.3210   25.9140   -5.4020 C   0  0  0  0  0  0  0  0  0  0  0  0
    6.7560   26.3040   -4.3160 O   0  0  0  0  0  0  0  0  0  0  0  0
    7.1940   25.6100   -6.3900 O   0  0  0  0  0  0  0  0  0  0  0  0
    8.6310   25.6980   -6.2200 C   0  0  0  0  0  0  0  0  0  0  0  0
    9.0990   25.3550   -7.1420 H   0  0  0  0  0  0  0  0  0  0  0  0
    8.9190   25.0590   -5.3850 H   0  0  0  0  0  0  0  0  0  0  0  0
    8.8880   26.7390   -6.0230 H   0  0  0  0  0  0  0  0  0  0  0  0
    4.4260   26.8370   -6.8110 C   0  0  1  0  0  0  0  0  0  0  0  0
    5.3110   26.9910   -7.4250 H   0  0  0  0  0  0  0  0  0  0  0  0
    3.2700   26.4570   -7.8090 C   0  0  1  0  0  0  0  0  0  0  0  0
    3.3120   27.4660   -9.0470 C   0  0  2  0  0  0  0  0  0  0  0  0
    4.0400   27.0630   -9.7440 H   0  0  0  0  0  0  0  0  0  0  0  0
    3.8290   28.9420   -8.6940 C   0  0  2  0  0  0  0  0  0  0  0  0
    5.2970   29.1410   -9.0840 C   0  0  0  0  0  0  0  0  0  0  0  0
    5.9730   29.2330  -10.2300 C   0  0  0  0  0  0  0  0  0  0  0  0
    5.4900   28.9580  -11.6370 C   0  0  0  0  0  0  0  0  0  0  0  0
    5.2880   29.9120  -12.1030 H   0  0  0  0  0  0  0  0  0  0  0  0
    6.2800   28.4270  -12.1500 H   0  0  0  0  0  0  0  0  0  0  0  0
    4.6040   28.3550  -11.5760 H   0  0  0  0  0  0  0  0  0  0  0  0
    7.3220   29.8670  -10.0030 C   0  0  2  0  0  0  0  0  0  0  0  0
    7.5600   30.6120  -10.7510 H   0  0  0  0  0  0  0  0  0  0  0  0
    8.3820   28.7790   -9.9440 C   0  0  0  0  0  0  0  0  0  0  0  0
    9.4750   28.6830  -10.8100 C   0  0  0  0  0  0  0  0  0  0  0  0
    9.7020   29.3430  -11.6030 H   0  0  0  0  0  0  0  0  0  0  0  0
   10.1870   27.5950  -10.4440 C   0  0  0  0  0  0  0  0  0  0  0  0
   11.0750   27.1950  -10.8570 H   0  0  0  0  0  0  0  0  0  0  0  0
    9.5920   26.9990   -9.3870 O   0  0  0  0  0  0  0  0  0  0  0  0
    8.4850   27.7260   -9.0960 C   0  0  0  0  0  0  0  0  0  0  0  0
    7.8560   27.4210   -8.3050 H   0  0  0  0  0  0  0  0  0  0  0  0
    7.1250   30.5240   -8.6010 C   0  0  0  0  0  0  0  0  0  0  0  0
    6.6900   31.5180   -8.7190 H   0  0  0  0  0  0  0  0  0  0  0  0
    8.0600   30.5790   -8.0470 H   0  0  0  0  0  0  0  0  0  0  0  0
    6.1050   29.5900   -7.9210 C   0  0  1  0  0  0  0  0  0  0  0  0
    6.5820   28.7780   -7.3960 H   0  0  0  0  0  0  0  0  0  0  0  0
    5.0950   30.2060   -7.1410 O   0  0  0  0  0  0  0  0  0  0  0  0
    3.8750   29.3710   -7.1820 C   0  0  2  0  0  0  0  0  0  0  0  0
    2.9950   29.9390   -6.8790 H   0  0  0  0  0  0  0  0  0  0  0  0
    4.0600   28.2010   -6.1680 C   0  0  2  0  0  0  0  0  0  0  0  0
    3.1200   28.0830   -5.6320 H   0  0  0  0  0  0  0  0  0  0  0  0
    5.1120   28.5720   -5.2190 O   0  0  0  0  0  0  0  0  0  0  0  0
    4.8840   29.3700   -4.1610 C   0  0  0  0  0  0  0  0  0  0  0  0
    3.7530   29.7820   -3.9020 O   0  0  0  0  0  0  0  0  0  0  0  0
    6.0740   29.7430   -3.2930 C   0  0  0  0  0  0  0  0  0  0  0  0
    6.7530   30.3640   -3.8750 H   0  0  0  0  0  0  0  0  0  0  0  0
    6.5970   28.8390   -2.9820 H   0  0  0  0  0  0  0  0  0  0  0  0
    5.7400   30.2930   -2.4130 H   0  0  0  0  0  0  0  0  0  0  0  0
    3.0580   30.0820   -9.4140 C   0  0  0  0  0  0  0  0  0  0  0  0
    3.5060   31.0350   -9.1310 H   0  0  0  0  0  0  0  0  0  0  0  0
    3.1450   29.9780  -10.4920 H   0  0  0  0  0  0  0  0  0  0  0  0
    2.0160   30.0940   -9.1000 H   0  0  0  0  0  0  0  0  0  0  0  0
    1.9510   27.4310   -9.8310 C   0  0  0  0  0  0  0  0  0  0  0  0
    1.2200   28.1080   -9.3920 H   0  0  0  0  0  0  0  0  0  0  0  0
    1.5090   26.4410   -9.7700 H   0  0  0  0  0  0  0  0  0  0  0  0
    2.0580   27.6620  -11.3380 C   0  0  0  0  0  0  0  0  0  0  0  0
    1.5220   28.6310  -11.8760 O   0  0  0  0  0  0  0  0  0  0  0  0
    2.6970   26.7270  -12.0660 O   0  0  0  0  0  0  0  0  0  0  0  0
    2.8310   26.8230  -13.5050 C   0  0  0  0  0  0  0  0  0  0  0  0
    3.3510   27.7520  -13.7410 H   0  0  0  0  0  0  0  0  0  0  0  0
    1.8330   26.8130  -13.9440 H   0  0  0  0  0  0  0  0  0  0  0  0
    3.4090   25.9640  -13.8450 H   0  0  0  0  0  0  0  0  0  0  0  0
    1.8640   26.4700   -7.1230 C   0  0  0  0  0  0  0  0  0  0  0  0
    1.1390   25.9400   -7.7390 H   0  0  0  0  0  0  0  0  0  0  0  0
    1.8960   25.9480   -6.1790 H   0  0  0  0  0  0  0  0  0  0  0  0
    1.5250   27.4950   -6.9740 H   0  0  0  0  0  0  0  0  0  0  0  0
    4.0140   25.7240   -4.4010 C   0  0  0  0  0  0  0  0  0  0  0  0
    4.0010   26.7050   -3.9330 H   0  0  0  0  0  0  0  0  0  0  0  0
    4.4960   25.0240   -3.7160 H   0  0  0  0  0  0  0  0  0  0  0  0
    3.0020   25.3680   -4.5620 H   0  0  0  0  0  0  0  0  0  0  0  0
  1  2  2  0  0  0  0
  2  3  1  0  0  0  0
  2 17  1  0  0  0  0
  3  4  1  0  0  0  0
  3  5  2  0  0  0  0
  5  6  1  0  0  0  0
  5  7  1  0  0  0  0
  7  8  1  0  0  0  0
  7 15  1  0  0  0  0
  7 72  1  0  0  0  0
  8  9  2  0  0  0  0
  8 10  1  0  0  0  0
 10 11  1  0  0  0  0
 11 12  1  0  0  0  0
 11 13  1  0  0  0  0
 11 14  1  0  0  0  0
 15 16  1  0  0  0  0
 15 17  1  0  0  0  0
 15 45  1  0  0  0  0
 17 18  1  0  0  0  0
 17 68  1  0  0  0  0
 18 19  1  0  0  0  0
 18 20  1  0  0  0  0
 18 58  1  0  0  0  0
 20 21  1  0  0  0  0
 20 43  1  0  0  0  0
 20 54  1  0  0  0  0
 21 22  2  0  0  0  0
 21 40  1  0  0  0  0
 22 23  1  0  0  0  0
 22 27  1  0  0  0  0
 23 24  1  0  0  0  0
 23 25  1  0  0  0  0
 23 26  1  0  0  0  0
 27 28  1  0  0  0  0
 27 29  1  0  0  0  0
 27 37  1  0  0  0  0
 29 30  1  0  0  0  0
 29 35  2  0  0  0  0
 30 31  1  0  0  0  0
 30 32  2  0  0  0  0
 32 33  1  0  0  0  0
 32 34  1  0  0  0  0
 34 35  1  0  0  0  0
 35 36  1  0  0  0  0
 37 38  1  0  0  0  0
 37 39  1  0  0  0  0
 37 40  1  0  0  0  0
 40 41  1  0  0  0  0
 40 42  1  0  0  0  0
 42 43  1  0  0  0  0
 43 44  1  0  0  0  0
 43 45  1  0  0  0  0
 45 46  1  0  0  0  0
 45 47  1  0  0  0  0
 47 48  1  0  0  0  0
 48 49  2  0  0  0  0
 48 50  1  0  0  0  0
 50 51  1  0  0  0  0
 50 52  1  0  0  0  0
 50 53  1  0  0  0  0
 54 55  1  0  0  0  0
 54 56  1  0  0  0  0
 54 57  1  0  0  0  0
 58 59  1  0  0  0  0
 58 60  1  0  0  0  0
 58 61  1  0  0  0  0
 61 62  2  0  0  0  0
 61 63  1  0  0  0  0
 63 64  1  0  0  0  0
 64 65  1  0  0  0  0
 64 66  1  0  0  0  0
 64 67  1  0  0  0  0
 68 69  1  0  0  0  0
 68 70  1  0  0  0  0
 68 71  1  0  0  0  0
 72 73  1  0  0  0  0
 72 74  1  0  0  0  0
 72 75  1  0  0  0  0
M  END
>  <rseq>
1

>  <mseq>
6

>  <S>
-5.4557257

>  <rmsd_refine>
2.4491885

>  <E_conf>
98.281998

>  <E_place>
-21.705713

>  <E_score1>
111.76465

>  <E_refine>
-23.398262

>  <E_score2>
-5.4557257

$$$$
Linoleic acid
  MOE2015           3D

 51 50  0  0  0  0  0  0  0  0999 V2000
    1.5410   31.4960  -16.6180 C   0  0  0  0  0  0  0  0  0  0  0  0
    0.8030   31.1510  -17.3420 H   0  0  0  0  0  0  0  0  0  0  0  0
    2.1410   32.2880  -17.0650 H   0  0  0  0  0  0  0  0  0  0  0  0
    1.0160   31.8880  -15.7480 H   0  0  0  0  0  0  0  0  0  0  0  0
    2.4340   30.3240  -16.2020 C   0  0  0  0  0  0  0  0  0  0  0  0
    2.8040   29.8250  -17.0960 H   0  0  0  0  0  0  0  0  0  0  0  0
    1.8350   29.6090  -15.6350 H   0  0  0  0  0  0  0  0  0  0  0  0
    3.6270   30.7820  -15.3500 C   0  0  0  0  0  0  0  0  0  0  0  0
    3.2580   31.2350  -14.4300 H   0  0  0  0  0  0  0  0  0  0  0  0
    4.2100   31.5190  -15.9050 H   0  0  0  0  0  0  0  0  0  0  0  0
    4.5130   29.5730  -15.0110 C   0  0  0  0  0  0  0  0  0  0  0  0
    4.9010   29.1330  -15.9310 H   0  0  0  0  0  0  0  0  0  0  0  0
    3.9280   28.8290  -14.4660 H   0  0  0  0  0  0  0  0  0  0  0  0
    5.6750   30.0700  -14.1290 C   0  0  0  0  0  0  0  0  0  0  0  0
    5.2680   30.4900  -13.2200 H   0  0  0  0  0  0  0  0  0  0  0  0
    6.2880   30.7640  -14.6890 H   0  0  0  0  0  0  0  0  0  0  0  0
    6.4980   28.8370  -13.7930 C   0  0  0  0  0  0  0  0  0  0  0  0
    6.3740   28.0140  -14.4500 H   0  0  0  0  0  0  0  0  0  0  0  0
    7.3530   28.7370  -12.7630 C   0  0  0  0  0  0  0  0  0  0  0  0
    7.8840   27.8360  -12.6030 H   0  0  0  0  0  0  0  0  0  0  0  0
    7.6740   29.8220  -11.7550 C   0  0  0  0  0  0  0  0  0  0  0  0
    7.2290   30.7640  -12.0350 H   0  0  0  0  0  0  0  0  0  0  0  0
    8.7470   29.8990  -11.6660 H   0  0  0  0  0  0  0  0  0  0  0  0
    7.0570   29.3500  -10.4520 C   0  0  0  0  0  0  0  0  0  0  0  0
    6.0430   29.6310  -10.3240 H   0  0  0  0  0  0  0  0  0  0  0  0
    7.6790   28.6140   -9.5150 C   0  0  0  0  0  0  0  0  0  0  0  0
    7.1540   28.3180   -8.6430 H   0  0  0  0  0  0  0  0  0  0  0  0
    9.1150   28.1240   -9.6180 C   0  0  0  0  0  0  0  0  0  0  0  0
    9.1670   27.3440  -10.3640 H   0  0  0  0  0  0  0  0  0  0  0  0
    9.7640   28.9580   -9.8350 H   0  0  0  0  0  0  0  0  0  0  0  0
    9.4910   27.5430   -8.2400 C   0  0  0  0  0  0  0  0  0  0  0  0
    9.4250   28.3200   -7.4760 H   0  0  0  0  0  0  0  0  0  0  0  0
    8.8240   26.7160   -7.9880 H   0  0  0  0  0  0  0  0  0  0  0  0
   10.9360   27.0300   -8.3420 C   0  0  0  0  0  0  0  0  0  0  0  0
   10.9890   26.2720   -9.1240 H   0  0  0  0  0  0  0  0  0  0  0  0
   11.5980   27.8500   -8.6080 H   0  0  0  0  0  0  0  0  0  0  0  0
   11.3970   26.4090   -7.0130 C   0  0  0  0  0  0  0  0  0  0  0  0
   10.7550   25.5530   -6.8000 H   0  0  0  0  0  0  0  0  0  0  0  0
   11.2790   27.1290   -6.2020 H   0  0  0  0  0  0  0  0  0  0  0  0
   12.8560   25.9170   -7.0580 C   0  0  0  0  0  0  0  0  0  0  0  0
   13.1370   25.6930   -8.0860 H   0  0  0  0  0  0  0  0  0  0  0  0
   12.9130   24.9820   -6.5000 H   0  0  0  0  0  0  0  0  0  0  0  0
   13.8960   26.8740   -6.4490 C   0  0  0  0  0  0  0  0  0  0  0  0
   14.8760   26.4030   -6.5440 H   0  0  0  0  0  0  0  0  0  0  0  0
   13.6890   26.9970   -5.3850 H   0  0  0  0  0  0  0  0  0  0  0  0
   13.9630   28.2660   -7.0990 C   0  0  0  0  0  0  0  0  0  0  0  0
   13.0620   28.8250   -6.8490 H   0  0  0  0  0  0  0  0  0  0  0  0
   14.0190   28.1690   -8.1810 H   0  0  0  0  0  0  0  0  0  0  0  0
   15.1830   29.0520   -6.6180 C   0  0  0  0  0  0  0  0  0  0  0  0
   16.2760   28.8280   -7.1850 O   0  5  0  0  0  0  0  0  0  0  0  0
   15.0000   29.8570   -5.6800 O   0  0  0  0  0  0  0  0  0  0  0  0
  1  2  1  0  0  0  0
  1  3  1  0  0  0  0
  1  4  1  0  0  0  0
  1  5  1  0  0  0  0
  5  6  1  0  0  0  0
  5  7  1  0  0  0  0
  5  8  1  0  0  0  0
  8  9  1  0  0  0  0
  8 10  1  0  0  0  0
  8 11  1  0  0  0  0
 11 12  1  0  0  0  0
 11 13  1  0  0  0  0
 11 14  1  0  0  0  0
 14 15  1  0  0  0  0
 14 16  1  0  0  0  0
 14 17  1  0  0  0  0
 17 18  1  0  0  0  0
 17 19  2  0  0  0  0
 19 20  1  0  0  0  0
 19 21  1  0  0  0  0
 21 22  1  0  0  0  0
 21 23  1  0  0  0  0
 21 24  1  0  0  0  0
 24 25  1  0  0  0  0
 24 26  2  0  0  0  0
 26 27  1  0  0  0  0
 26 28  1  0  0  0  0
 28 29  1  0  0  0  0
 28 30  1  0  0  0  0
 28 31  1  0  0  0  0
 31 32  1  0  0  0  0
 31 33  1  0  0  0  0
 31 34  1  0  0  0  0
 34 35  1  0  0  0  0
 34 36  1  0  0  0  0
 34 37  1  0  0  0  0
 37 38  1  0  0  0  0
 37 39  1  0  0  0  0
 37 40  1  0  0  0  0
 40 41  1  0  0  0  0
 40 42  1  0  0  0  0
 40 43  1  0  0  0  0
 43 44  1  0  0  0  0
 43 45  1  0  0  0  0
 43 46  1  0  0  0  0
 46 47  1  0  0  0  0
 46 48  1  0  0  0  0
 46 49  1  0  0  0  0
 49 50  1  0  0  0  0
 49 51  2  0  0  0  0
M  CHG  1  50  -1
M  END
>  <rseq>
1

>  <mseq>
7

>  <S>
-6.5411658

>  <rmsd_refine>
1.5172849

>  <E_conf>
-80.599281

>  <E_place>
-66.133118

>  <E_score1>
0.068813726

>  <E_refine>
-33.943722

>  <E_score2>
-6.5411658

$$$$
