REMARK  Name = Aloeresin A
REMARK  8 active torsions:
REMARK  status: ('A' for Active; 'I' for Inactive)
REMARK    1  A    between atoms: C_5  and  C_17
REMARK    2  A    between atoms: C_11  and  C_13
REMARK    3  A    between atoms: C_13  and  C_14
REMARK    4  A    between atoms: C_18  and  O_27
REMARK    5  A    between atoms: C_21  and  C_23
REMARK    6  A    between atoms: O_27  and  C_28
REMARK    7  A    between atoms: C_28  and  C_30
REMARK    8  A    between atoms: C_31  and  C_32
REMARK                            x       y       z     vdW  Elec       q    Type
REMARK                         _______ _______ _______ _____ _____    ______ ____
ROOT
ATOM      1  C   UNL     1       3.369  28.579  -8.471  0.00  0.00    +0.186 C 
ATOM      2  O   UNL     1       3.140  27.158  -8.382  0.00  0.00    -0.345 OA
ATOM      3  C   UNL     1       3.139  26.619  -7.038  0.00  0.00    +0.181 C 
ATOM      4  C   UNL     1       1.954  27.258  -6.292  0.00  0.00    +0.215 C 
ATOM      5  O   UNL     1       1.988  26.857  -4.935  0.00  0.00    -0.218 OA
ATOM      6  C   UNL     1       2.025  28.797  -6.378  0.00  0.00    +0.227 C 
ATOM      7  O   UNL     1       0.853  29.336  -5.792  0.00  0.00    -0.216 OA
ATOM      8  C   UNL     1       2.140  29.284  -7.839  0.00  0.00    +0.233 C 
ENDROOT
BRANCH   1  18
ATOM      9  C   UNL     1       4.210  29.809 -14.182  0.00  0.00    +0.031 C 
ATOM     10  C   UNL     1       4.056  29.467 -12.708  0.00  0.00    -0.013 A 
ATOM     11  C   UNL     1       5.123  29.548 -11.778  0.00  0.00    +0.070 A 
ATOM     12  C   UNL     1       6.505  29.879 -12.126  0.00  0.00    +0.201 A 
ATOM     13  C   UNL     1       7.467  29.975 -11.064  0.00  0.00    +0.075 A 
ATOM     14  C   UNL     1       7.111  29.752  -9.777  0.00  0.00    +0.133 A 
ATOM     15  O   UNL     1       5.836  29.417  -9.485  0.00  0.00    -0.457 OA
ATOM     16  O   UNL     1       6.882  30.074 -13.277  0.00  0.00    -0.286 OA
ATOM     17  C   UNL     1       4.835  29.289 -10.419  0.00  0.00    +0.149 A 
ATOM     18  C   UNL     1       3.571  28.894  -9.961  0.00  0.00    +0.082 A 
ATOM     19  C   UNL     1       2.577  28.742 -10.930  0.00  0.00    +0.197 A 
ATOM     20  O   UNL     1       1.348  28.247 -10.623  0.00  0.00    -0.287 OA
ATOM     21  C   UNL     1       2.802  29.055 -12.272  0.00  0.00    +0.038 A 
BRANCH  14  22
ATOM     22  C   UNL     1       8.022  29.822  -8.572  0.00  0.00    +0.129 C 
BRANCH  22  23
ATOM     23  C   UNL     1       8.537  28.413  -8.356  0.00  0.00    +0.159 C 
ATOM     24  C   UNL     1       7.723  27.424  -7.550  0.00  0.00    +0.073 C 
ATOM     25  O   UNL     1       9.583  28.080  -8.835  0.00  0.00    -0.296 OA
ENDBRANCH  22  23
ENDBRANCH  14  22
ENDBRANCH   1  18
BRANCH   3  26
ATOM     26  C   UNL     1       3.011  25.095  -7.151  0.00  0.00    +0.214 C 
ATOM     27  O   UNL     1       4.079  24.573  -7.918  0.00  0.00    -0.218 OA
ENDBRANCH   3  26
BRANCH   8  28
ATOM     28  O   UNL     1       2.399  30.727  -7.801  0.00  0.00    -0.444 OA
BRANCH  28  29
ATOM     29  C   UNL     1       1.425  31.663  -7.979  0.00  0.00    +0.341 C 
ATOM     30  O   UNL     1       0.295  31.285  -8.247  0.00  0.00    -0.245 OA
BRANCH  29  31
ATOM     31  C   UNL     1       1.774  33.061  -7.859  0.00  0.00    +0.082 C 
ATOM     32  C   UNL     1       2.968  33.511  -7.391  0.00  0.00    +0.007 C 
BRANCH  32  33
ATOM     33  C   UNL     1       3.375  34.907  -7.364  0.00  0.00    +0.000 A 
ATOM     34  C   UNL     1       2.845  35.861  -8.253  0.00  0.00    +0.003 A 
ATOM     35  C   UNL     1       3.323  37.166  -8.262  0.00  0.00    +0.042 A 
ATOM     36  C   UNL     1       4.334  37.529  -7.375  0.00  0.00    +0.196 A 
ATOM     37  O   UNL     1       4.848  38.789  -7.408  0.00  0.00    -0.287 OA
ATOM     38  C   UNL     1       4.844  36.616  -6.457  0.00  0.00    +0.042 A 
ATOM     39  C   UNL     1       4.363  35.313  -6.455  0.00  0.00    +0.003 A 
ENDBRANCH  32  33
ENDBRANCH  29  31
ENDBRANCH  28  29
ENDBRANCH   8  28
TORSDOF 8
