REMARK  Name = Linoleic acid
REMARK  14 active torsions:
REMARK  status: ('A' for Active; 'I' for Inactive)
REMARK    1  A    between atoms: C_2  and  C_3
REMARK    2  A    between atoms: C_3  and  C_4
REMARK    3  A    between atoms: C_4  and  C_5
REMARK    4  A    between atoms: C_5  and  C_6
REMARK    5  A    between atoms: C_7  and  C_8
REMARK    6  A    between atoms: C_8  and  C_9
REMARK    7  A    between atoms: C_10  and  C_11
REMARK    8  A    between atoms: C_11  and  C_12
REMARK    9  A    between atoms: C_12  and  C_13
REMARK   10  A    between atoms: C_13  and  C_14
REMARK   11  A    between atoms: C_14  and  C_15
REMARK   12  A    between atoms: C_15  and  C_16
REMARK   13  A    between atoms: C_16  and  C_17
REMARK   14  A    between atoms: C_17  and  C_18
REMARK                            x       y       z     vdW  Elec       q    Type
REMARK                         _______ _______ _______ _____ _____    ______ ____
ROOT
ATOM      1  C   UNL     1       2.765  29.591 -16.296  0.00  0.00    -0.026 C 
ATOM      2  C   UNL     1       4.092  29.413 -16.175  0.00  0.00    -0.030 C 
ENDROOT
BRANCH   1   3
ATOM      3  C   UNL     1       1.916  30.596 -15.544  0.00  0.00    +0.051 C 
BRANCH   3   5
ATOM      4  C   UNL     1       0.761  32.072 -17.279  0.00  0.00    -0.030 C 
ATOM      5  C   UNL     1       1.805  31.784 -16.482  0.00  0.00    -0.026 C 
BRANCH   4   6
ATOM      6  C   UNL     1      -0.517  31.262 -17.422  0.00  0.00    +0.026 C 
BRANCH   6   7
ATOM      7  C   UNL     1      -1.659  32.081 -16.780  0.00  0.00    +0.005 C 
BRANCH   7   8
ATOM      8  C   UNL     1      -1.465  32.106 -15.252  0.00  0.00    +0.000 C 
BRANCH   8  10
ATOM      9  C   UNL     1      -2.422  32.885 -13.049  0.00  0.00    +0.000 C 
ATOM     10  C   UNL     1      -2.594  32.890 -14.571  0.00  0.00    +0.000 C 
ENDBRANCH   8  10
ENDBRANCH   7   8
ENDBRANCH   6   7
ENDBRANCH   4   6
ENDBRANCH   3   5
ENDBRANCH   1   3
BRANCH   2  11
ATOM     11  C   UNL     1       5.018  30.170 -15.238  0.00  0.00    +0.026 C 
BRANCH  11  12
ATOM     12  C   UNL     1       5.526  29.105 -14.246  0.00  0.00    +0.005 C 
BRANCH  12  13
ATOM     13  C   UNL     1       6.359  29.832 -13.182  0.00  0.00    +0.000 C 
BRANCH  13  14
ATOM     14  C   UNL     1       6.882  28.846 -12.133  0.00  0.00    +0.000 C 
BRANCH  14  15
ATOM     15  C   UNL     1       7.527  29.569 -10.940  0.00  0.00    +0.001 C 
BRANCH  15  16
ATOM     16  C   UNL     1       7.944  28.554  -9.867  0.00  0.00    +0.012 C 
BRANCH  16  17
ATOM     17  C   UNL     1       8.402  29.224  -8.566  0.00  0.00    +0.114 C 
BRANCH  17  18
ATOM     18  C   UNL     1       8.858  28.193  -7.533  0.00  0.00    +0.365 C 
ATOM     19  O   UNL     1       7.987  27.428  -7.064  0.00  0.00    -0.246 OA
ATOM     20  O   UNL     1      10.065  28.200  -7.208  0.00  0.00    -0.246 OA
ENDBRANCH  17  18
ENDBRANCH  16  17
ENDBRANCH  15  16
ENDBRANCH  14  15
ENDBRANCH  13  14
ENDBRANCH  12  13
ENDBRANCH  11  12
ENDBRANCH   2  11
TORSDOF 14
