REMARK  Name = Nimbin
REMARK  8 active torsions:
REMARK  status: ('A' for Active; 'I' for Inactive)
REMARK    1  A    between atoms: C_5  and  C_6
REMARK    2  A    between atoms: C_6  and  O_8
REMARK    3  A    between atoms: C_12  and  C_33
REMARK    4  A    between atoms: C_17  and  C_18
REMARK    5  A    between atoms: C_27  and  O_28
REMARK    6  A    between atoms: O_28  and  C_29
REMARK    7  A    between atoms: C_33  and  C_34
REMARK    8  A    between atoms: C_34  and  O_36
REMARK                            x       y       z     vdW  Elec       q    Type
REMARK                         _______ _______ _______ _____ _____    ______ ____
ROOT
ATOM      1  O   UNL     1       0.605  24.493 -14.184  0.00  0.00    -0.291 OA
ATOM      2  C   UNL     1       1.362  25.367 -14.538  0.00  0.00    +0.172 C 
ATOM      3  C   UNL     1       2.278  26.068 -13.515  0.00  0.00    +0.061 C 
ATOM      4  C   UNL     1       3.519  25.145 -13.272  0.00  0.00    +0.008 C 
ATOM      5  C   UNL     1       1.464  26.284 -12.155  0.00  0.00    +0.024 C 
ATOM      6  C   UNL     1       1.898  27.589 -11.319  0.00  0.00    +0.046 C 
ATOM      7  C   UNL     1       1.938  27.388  -9.779  0.00  0.00    +0.007 C 
ATOM      8  C   UNL     1       3.266  28.286 -11.677  0.00  0.00    +0.159 C 
ATOM      9  C   UNL     1       3.756  28.064 -13.135  0.00  0.00    +0.197 C 
ATOM     10  O   UNL     1       2.942  29.716 -11.518  0.00  0.00    -0.351 OA
ATOM     11  C   UNL     1       1.631  29.971 -12.005  0.00  0.00    +0.134 C 
ATOM     12  C   UNL     1       0.829  31.050 -11.250  0.00  0.00    +0.042 C 
ATOM     13  C   UNL     1      -0.623  30.484 -11.320  0.00  0.00    +0.046 C 
ATOM     14  C   UNL     1      -0.339  29.004 -11.203  0.00  0.00    -0.046 C 
ATOM     15  C   UNL     1      -1.360  28.065 -10.602  0.00  0.00    +0.026 C 
ATOM     16  C   UNL     1       0.926  28.748 -11.540  0.00  0.00    -0.023 C 
ATOM     17  C   UNL     1       2.676  27.481 -14.081  0.00  0.00    +0.063 C 
ATOM     18  C   UNL     1       3.080  27.559 -15.624  0.00  0.00    +0.112 C 
ATOM     19  C   UNL     1       4.532  27.129 -15.975  0.00  0.00    +0.016 C 
ATOM     20  C   UNL     1       2.170  26.676 -16.455  0.00  0.00    -0.013 C 
ATOM     21  C   UNL     1       1.405  25.696 -15.945  0.00  0.00    +0.033 C 
ENDROOT
BRANCH  13  22
ATOM     22  C   UNL     1      -1.200  30.800 -12.693  0.00  0.00    +0.022 A 
ATOM     23  C   UNL     1      -1.532  29.930 -13.678  0.00  0.00    +0.176 A 
ATOM     24  O   UNL     1      -2.008  30.606 -14.754  0.00  0.00    -0.448 OA
ATOM     25  C   UNL     1      -1.971  31.924 -14.440  0.00  0.00    +0.179 A 
ATOM     26  C   UNL     1      -1.485  32.079 -13.189  0.00  0.00    +0.040 A 
ENDBRANCH  13  22
BRANCH  18  27
ATOM     27  C   UNL     1       2.848  28.998 -16.119  0.00  0.00    +0.320 C 
ATOM     28  O   UNL     1       3.734  29.725 -16.576  0.00  0.00    -0.250 OA
BRANCH  27  29
ATOM     29  O   UNL     1       1.590  29.482 -16.023  0.00  0.00    -0.444 OA
ATOM     30  C   UNL     1       1.250  30.845 -16.380  0.00  0.00    +0.256 C 
ENDBRANCH  27  29
ENDBRANCH  18  27
BRANCH   5  31
ATOM     31  C   UNL     1       1.462  24.962 -11.304  0.00  0.00    +0.110 C 
BRANCH  31  32
ATOM     32  C   UNL     1       0.221  24.729 -10.443  0.00  0.00    +0.317 C 
ATOM     33  O   UNL     1       0.299  24.664  -9.216  0.00  0.00    -0.250 OA
BRANCH  32  34
ATOM     34  O   UNL     1      -0.945  24.507 -11.078  0.00  0.00    -0.444 OA
ATOM     35  C   UNL     1      -2.172  24.228 -10.362  0.00  0.00    +0.256 C 
ENDBRANCH  32  34
ENDBRANCH  31  32
ENDBRANCH   5  31
BRANCH   9  36
ATOM     36  O   UNL     1       4.225  29.330 -13.681  0.00  0.00    -0.450 OA
BRANCH  36  37
ATOM     37  C   UNL     1       5.485  29.764 -13.540  0.00  0.00    +0.318 C 
ATOM     38  C   UNL     1       5.888  30.990 -14.339  0.00  0.00    +0.121 C 
ATOM     39  O   UNL     1       6.296  29.169 -12.831  0.00  0.00    -0.250 OA
ENDBRANCH  36  37
ENDBRANCH   9  36
TORSDOF 8
